<configuration xmlns:xsi="http://www.w3.org/2001/XMLSchema-instance" xsi:noNamespaceSchemaLocation="http://sumo.dlr.de/xsd/sumoConfiguration.xsd">

    <input>
        <net-file value="C:\Users\lyect\Desktop\bmm\launcher\gen\best.xml" />
        <route-files value="trips.trips.xml" />
		<additional-files value="taz.add.xml" />
    </input>

</configuration>