<?xml version="1.0" encoding="UTF-8"?>

<!-- generated on 2023-07-23 12:29:32.344817 by randomTrips.py v1_18_0+0000-03ecfdea036
<configuration>
    <net-file value=".\input\network.net.xml"/>
    <validate value="True"/>
    <end value="1000.0"/>
</configuration>
-->

<!-- generated on 2023-07-23 12:29:30 by Eclipse SUMO duarouter Version 1.18.0
<configuration xmlns:xsi="http://www.w3.org/2001/XMLSchema-instance" xsi:noNamespaceSchemaLocation="http://sumo.dlr.de/xsd/duarouterConfiguration.xsd">

    <input>
        <net-file value=".\input\network.net.xml"/>
        <route-files value="trips.trips.xml"/>
    </input>

    <output>
        <output-file value="routes.rou.xml"/>
        <alternatives-output value="NUL"/>
    </output>

    <time>
        <begin value="0"/>
        <end value="1000.0"/>
    </time>

    <report>
        <no-warnings value="true"/>
        <ignore-errors value="true"/>
        <no-step-log value="true"/>
    </report>

</configuration>
-->

<routes xmlns:xsi="http://www.w3.org/2001/XMLSchema-instance" xsi:noNamespaceSchemaLocation="http://sumo.dlr.de/xsd/routes_file.xsd">
    <vehicle id="0" depart="0.00">
        <route edges="415418918#0 415418918#1 415418918#2 415418918#3 415418918#4 415418918#5 415418914#0 E148 E133 E150 415418914#2 E151 95949167 -E156 932384167#1 932384166 831144375#0 831144375#1 -E157 -E115 E119 E36 E37 831144375#5 485053285#0 E35 E33 -E122 E84 51271000#0 51271000#1 E85 51271000#3 51271000#4 51271000#5 51271000#6 51271000#7 51271000#8 51271000#9 51271000#10 E87 26175437#1 26175437#2 26175437#3 26175437#4 26175437#5 26175437#6 26175437#7 26175437#8 26175437#9 26175437#10 26175437#11 26175437#12 175455529 -802143034#7 -802143034#6 -802143034#5 135652001#0 135652001#1 -135652001#1"/>
    </vehicle>
    <vehicle id="1" depart="1.00">
        <route edges="-51820313#2 51820313#2 -51820309#1 -51820309#0 48135949#2 48135949#3 E107 E108 E109 -485053287#10 -485053287#9 -485053287#8 -485053287#7 -485053287#6 -485053287#5 E101 E103 -485053287#2 E171 E93 -485053281#1 -55353714#4 E90 E165 51398586#0 51398586#1 -1004738178#1 -1004738178#0 -51398585#2"/>
    </vehicle>
    <vehicle id="2" depart="2.00">
        <route edges="51200266#6 -51200266#6 -51200266#5 -51200266#4 -51200266#3 -51200266#2 146588339#3 146588339#4 86296553#6 E0 86296553#8 86296553#9 86296553#10 86296553#11 -E2 E1 -72107992#1 -72107992#0 -72107997#4 -72107997#3 -72107997#2 -72107997#1 -72107997#0 -86371390 -124186701#2 -124186701#1 -124186701#0 -309631702#1 -309631702#0 -51272618#7 E40 E49 -51272618#4 E24 E25 -51272618#1 E15 -E17 -559505781#5 -559505781#4 E30 -E26 -559505781#2 -559505781#1 -E28 E29 26175432#1 26175432#2 26175432#3 26175432#4 559505745#0 559505745#1 559505745#2 559505745#3 559505745#4 559505745#5 559505745#6 559505745#7 E78 -E18 -E77 E76 -E16 253143836#3 253143836#4 253143836#5 253143836#6 253143836#7 -E74 E73 253143836#10 253143836#11 253143836#12 253143836#13 253143836#14 253143836#15 253143836#16 48211315#0 48211315#1 48211315#2"/>
    </vehicle>
    <vehicle id="3" depart="3.00">
        <route edges="75616621#1 75616621#2 75616621#3 -49475605#3 -49475605#2 -49475605#1 -49475605#0 -26175437#8 -26175437#7 -26175437#6 -26175437#5 -26175437#4 -26175437#3 -26175437#2 -26175437#1 -E87 -51271000#10 -51271000#9 -51271000#8 -51271000#7 -51271000#6 -51271000#5 -51271000#4 -51271000#3 -E85 -51271000#1 -51271000#0 -E84 E122 -E33 -E35 -485053285#0 23328568#0 E27 E28 559505781#1 559505781#2 E26 -E30 559505781#4 559505781#5 E17 -E15 51272618#1 -E25 -E24 51272618#4 -E49 -E40 51272618#7 309631702#0 309631702#1 45326122#0 45326122#1 45326122#2 45326122#3 45326122#4 45326122#5 45326122#6 45326122#7 E98 45326122#9 -42243993#7 -42243993#6 -42243993#5 -42243993#4 -42243993#3 -42243993#2 -42243993#1 E5 193336887 51142637#0 51142637#1 51142637#2 -23328574#5 -23328574#4 -23328574#3 -23328574#2 -23328574#1"/>
    </vehicle>
    <vehicle id="4" depart="4.00">
        <route edges="-86473324#0 -91999878#4 -91999878#3 -91999878#2 -91999878#1 -91999878#0 48161586#0 48161586#1 48161586#2 48161586#3 86127799#0 86127799#1 86127799#2 91006984#0 91006984#1 91006984#2 -48161585#4 -48161585#3 -48161585#2 -48161585#1 -48161585#0 -114925775#5 51130938#0 51130938#1 51130938#2 E38 E37 831144375#5 485053285#0 E35 E33 -E122 E84 51271000#0 51271000#1 E85 51271000#3 51271000#4 51271000#5 51271000#6 51271000#7 51271000#8 51271000#9 51271000#10 E87 26175437#1 51138297#0 51138297#1 51138297#2 139844349#0 -139844349#0"/>
    </vehicle>
    <vehicle id="5" depart="5.00">
        <route edges="-51142643#0 303644452#3 -E6 -91375465#31 -91375465#30 -91375465#29 -91375465#28 -91375465#27 -91375465#26 -91375465#25 -91375465#24 -91375465#23 -91375465#22 -91375465#21 -91375465#20 -91375465#19 -91375465#18 -91375465#17 -91375465#16 -91375465#15 -91375465#14 -91375465#13 -91375465#12 -91375465#11 -91375465#10 -91375465#9 763044852 -139878249#3 -139878249#2 -139878249#1 -139878249#0 -528461608#1 528461608#1 139878249#0"/>
    </vehicle>
    <vehicle id="6" depart="6.00">
        <route edges="-130729278#5 -130729278#4 -130729278#3 -130729278#2 -130729278#1 164790500#3 164790500#4 164790500#5 164790500#6 164790500#7 164790500#8 42243993#3 42243993#4 42243993#5 42243993#6 42243993#7 45786301#0 E99 45786301#2 45786301#3 45786301#4 45786301#5 45786301#6 45786301#7 45786301#8 45786301#9 45786301#10 45786301#11 45786301#12 -124186701#0 -309631702#1 -309631702#0 -51272618#7 E40 E49 -51272618#4 E24 E25 -51272618#1 E15 -E17 -559505781#5 -559505781#4 E30 -E26 -559505781#2 -559505781#1 -E28 -E27 -23328568#0 485053285#0 E35 E33 -E122 E84 51271000#0 51271000#1 E85 51271000#3 51271000#4 51271000#5 51271000#6 51271000#7 51271000#8 51271000#9 51271000#10 E87 26175437#1 51138297#0 51138297#1 -51138297#1"/>
    </vehicle>
    <vehicle id="7" depart="7.00">
        <route edges="45324704#0 45324704#1 45324899#0 45324899#1 45324899#2 45324899#3 45324899#4 91375465#30 91375465#31 E6 -E5 42243993#1 42243993#2 42243993#3 42243993#4 42243993#5 42243993#6 42243993#7 45786301#0 E99 45786301#2 45786301#3 45786301#4 45786301#5 45786301#6 45786301#7 45786301#8 45786301#9 45786301#10 45786301#11 45786301#12 -124186701#0 -309631702#1 -309631702#0 -E47 -175960788#2 -E50 -175960788#0 -28018709#1 -28018709#0 -34922485#18 E51 -E43 -34922485#16 E56 -E53 -34922485#14 -34922485#13 -175958441#1 -175958441#0 -175958444#1 175958445#0 175958443#0"/>
    </vehicle>
    <vehicle id="8" depart="8.00">
        <route edges="-51149938#0 48211004#3 51189358#0 51189358#1 86127780#13 48188579#0 48188579#1 48188579#2 48188579#3 48188579#4 -48188581#2 -48188581#1 -48188581#0 521697214#3 521697214#4 86127778#0 86127778#1 521706064#0 521706064#1 E79 E80 -253143836#17 -253143836#16 -253143836#15 -253143836#14 -253143836#13 -253143836#12 -253143836#11 -253143836#10 -E73 E74 -253143836#7 -253143836#6 -253143836#5 -253143836#4 -253143836#3 E16 -E76 559505746#0 E75 559505746#2 559505746#3 559505746#4 559505746#5 559505746#6 559505746#7 559505746#8 559505746#9 559505746#10 559505746#11 559505746#12 559505746#13 559505746#14 E62 -E61 559505747#2 559505747#3 559505747#4 -323617606#2 -323617606#1 -323617606#0 323617606#0"/>
    </vehicle>
    <vehicle id="9" depart="9.00">
        <route edges="521706070#0 521706070#1 521706070#2 521706070#3 521706070#4 -559505745#2 -559505745#1 -559505745#0 -26175432#4 -26175432#3 -26175432#2 -26175432#1 -E29 E28 559505781#1 559505781#2 E26 -E30 559505781#4 559505781#5 E17 -E15 51272618#1 -E25 -E24 51272618#4 -E49 -E40 51272618#7 309631702#0 309631702#1 124186701#0 124186701#1 124186701#2 86371390 72107997#0 72107997#1 72107997#2 72107997#3 72107997#4 72107992#0 72107992#1 -E1 -E3 -86127790#9 -86127790#8 -584857970#2 -584857970#1 -584857970#0 -1066473172#5 -1066473172#4 -1066473172#3 -1066473172#2"/>
    </vehicle>
    <vehicle id="10" depart="10.00">
        <route edges="52030494#1 -52030494#1 -52030494#0 86203642#4 86203642#5 86203642#6 86203642#7 86203642#8 86203642#9 86203642#10 -124186701#2 -124186701#1 -124186701#0 -309631702#1 -309631702#0 -51272618#7 E40 E49 -51272618#4 E24 E25 -51272618#1 E15 -E17 -559505781#5 -559505781#4 E30 -E26 -559505781#2 -559505781#1 -E28 -E27 -23328568#0 485053285#0 E35 E33 -E122 E84 51271000#0 51271000#1 E85 51271000#3 51271000#4 51271000#5 51271000#6 51271000#7 51271000#8 51271000#9 51271000#10 E87 26175437#1 26175437#2 26175437#3 26175437#4 26175437#5 26175437#6 26175437#7 26175437#8 26175437#9 26175437#10 -51138154#19 -51138154#18 -139844347#2 -993451644#4 -993451644#3 -993451644#2 -993451644#1 -993451644#0 51138154#12"/>
    </vehicle>
    <vehicle id="11" depart="11.00">
        <route edges="-58060030#5 -58060030#4 -58060030#3 -58060030#2 -58060030#1 -58060030#0 E226 E124 -E227 -E125 146587943#8 146587943#9 146587943#10 146587943#11 -55353717#1 -E92 146587943#13 -E93 -E171 485053287#2 -E103 -E101 485053287#5 485053287#6 485053287#7 485053287#8 485053287#9 485053287#10 -E109 E189 E191 -E110 E194 485053287#15 E195 -E111 -E196 485053287#18 485053287#19 E199 E112 485053287#21 485053287#22 51826556#0 51826556#1 51826556#2 51826571#0 51826571#1 26175435#4 26175435#5 26175435#6 26175435#7 E60 -E203 E204 E67 415418923#1 415418923#2 415418923#3 415418923#4 415418923#5 415418923#6 415418918#0 415418918#1 415418918#2 415418918#3 415418918#4 415418918#5 45781461#0 E138 -E135 -48161566#20 -48161566#19 -48161566#18 -48161566#17 -48161566#16 -48161566#15"/>
    </vehicle>
    <vehicle id="12" depart="12.00">
        <route edges="94526361#5 -207904727#2 -207904727#1 -E19 -E15 51272618#1 -E25 -E24 51272618#4 -E49 -E40 51272618#7 309631702#0 309631702#1 45326122#0 45326122#1 45326122#2 -86849761#1 -86849761#0 -138309362#1 -138309362#0 -51696592#0 51696564#2 -51696582 51696531#6 51696531#7 51696531#8 51696531#9 677242338#0 677242338#1 -677242338#1"/>
    </vehicle>
    <vehicle id="13" depart="13.00">
        <route edges="-23328567#2 23328567#2 95949158 485053286#0 485053286#1 485053286#2 845110746 95949167 -E156 932384167#1 932384166 831144375#0 831144375#1 -E157 -E115 E119 E36 E37 831144375#5 23328568#0 E27 E28 559505781#1 559505781#2 E26 -E30 559505781#4 559505781#5 E17 -E15 51272618#1 -E25 -E24 51272618#4 -E49 -E40 51272618#7 309631702#0 309631702#1 124186701#0 124186701#1 124186701#2 86371390 72107997#0 72107997#1 72107997#2 72107997#3 72107997#4 72107992#0 72107992#1 -E1 E2 -86296553#11 -86296553#10 -86296553#9 -86296553#8 -E0 -86296553#6 -86296553#5 -86296553#4 -86296553#3 -86296553#2 478638721 51818689#0 51818689#1 51818689#2 51818689#3 51818689#4 51818689#5 51818689#6 51818689#7 51818689#8 51818689#9 51818689#10 51818689#11 51818689#12 51818689#13 51818689#14 51818689#15 51818689#16 51818689#17 51818689#18 85470048#0 85470048#1 85470044#0 29231523#0 29231523#1 29231523#2 29231523#3 29231523#4 -29231523#4 -29231523#3 -29231523#2 -29231523#1 -29231523#0"/>
    </vehicle>
    <vehicle id="14" depart="14.00">
        <route edges="58060058#1 -58060058#1 -58060058#0 197773382#3 197773382#4 197773382#5 197773382#6 197773382#7 197773382#8 -E114 197773683#0 197773683#1 197773683#2 E105 E103 -485053287#2 E171 E93 -485053281#1 -485053281#0 -E89 -E167 -521697218#6 -E88 -521697218#3 -521697218#2 -521697218#1 E158 -E86 -51271000#10 -51271000#9 -51271000#8 -51271000#7 -51271000#6 -51271000#5 -51271000#4 -51271000#3 -E85 -51271000#1 -51271000#0 -E84 E122 -E33 -E35 -485053285#0 23328568#0 E27 E28 559505781#1 559505781#2 E26 -E30 559505781#4 559505781#5 E17 -E15 51272618#1 -E25 -E24 51272618#4 -E49 -E40 51272618#7 309631702#0 309631702#1 124186701#0 124186701#1 124186701#2 86371390 72107997#0 72107997#1 72107997#2 72107997#3 72107997#4 72107992#0 72107992#1 -E1 E2 -86296553#11 -86296553#10 -86296553#9 -86296553#8 -E0 -86296553#6 -86296553#5 -86296553#4 -86296553#3 -86296553#2 478638721 51818689#0 51818689#1 51818689#2 51818689#3 51818689#4 51818689#5 51818689#6 51818689#7 51818689#8 51818689#9 51818689#10 1059305957#0 1059305957#1 1059305957#2 1059305957#3 1059305957#4 39540696#0 39540696#1 39540697"/>
    </vehicle>
    <vehicle id="15" depart="15.00">
        <route edges="52096578#0 -52096578#0 45781497#0 45781497#1 E145 45781497#3 45781497#4 45781497#5 45781497#6 E139 E143 45781497#8 45781497#9 E136 E137 45781497#11 -415418918#4 -415418918#3 -415418918#2 -415418918#1 -415418918#0 -415418923#6 -415418923#5 -415418923#4 -415418923#3 -415418923#2 -415418923#1 -E67 -E204 E203 -E60 -26175435#7 -26175435#6 -26175435#5 -26175435#4 -51826571#1 -51826571#0 -51826556#2 -51826556#1 -51826556#0 -485053287#22 -485053287#21 -E112 -E199 -485053287#19 -485053287#18 E196 E111 -E195 -485053287#15 -E194 E110 -E191 -E189 E109 -485053287#10 -485053287#9 -485053287#8 -485053287#7 -485053287#6 -485053287#5 E101 E103 -485053287#2 E171 E93 -485053281#1 -55353714#4 E90 E165 -55353714#2 51398585#0"/>
    </vehicle>
    <vehicle id="16" depart="16.00">
        <route edges="146588039#7 146588039#8 146588039#9 -91999878#1 -91999878#0 48161586#0 48161586#1 48161586#2 48161586#3 86127799#0 86127799#1 86127799#2 91006984#0 91006984#1 91006984#2 -48161585#4 -48161585#3 -48161585#2 -48161585#1 -48161585#0 -114925775#5 51130938#0 51130938#1 51130938#2 E38 E37 831144375#5 23328568#0 E27 E28 559505781#1 559505781#2 E26 -E30 559505781#4 559505781#5 E17 -E15 51272618#1 -E25 E23 51225886#1 51225886#2 51225886#3 51225886#4 99457767#0 99457767#1"/>
    </vehicle>
    <vehicle id="17" depart="17.00">
        <route edges="-74476999#18 -74476999#17 -74476999#16 -74476999#15 -74476999#14 -74476999#13 -74476999#12 -74476999#11 -74476999#10 -74476999#9 -74476999#8 -74476999#7 -74476999#7.87 -74476999#6 -E12 -74476999#4 -74476999#3 -74476999#2 E10 E11 E7 -478638718#12 -146607495#3 -146607495#2 -146607495#1 -146607495#0 -176437608#18 -176437608#17 -176437608#16 -176437608#15 -52018803#2 -52018803#1 -52018803#0 -176437588#4 -176437588#3 -176437588#2 -176437588#1 -176437588#0 176437588#0"/>
    </vehicle>
    <vehicle id="18" depart="18.00">
        <route edges="55360154#1 -55360154#1 -55360154#0 74476994#2 74476994#3 74476994#4 74476994#5 -E68 -E205 E204 E67 415418923#1 415418923#2 415418923#3 415418923#4 415418923#5 48180156#0 48180156#1 48180158#1 48180161#0 48180161#1 -E161 48180168#0 48180168#1 -E162 -48180175#1 -48180176#2 -48180176#1 -48180176#0 -48161636#2 -48161636#1 -48161636#0 -542756048 542756049#0 542756049#1 -55360153#1 -55360153#0 197773683#17 197773683#18 197773683#19 415418927"/>
    </vehicle>
    <vehicle id="19" depart="19.00">
        <route edges="676823401#0 -676823401#0 42243993#7 45786301#0 E99 45786301#2 45786301#3 45786301#4 45786301#5 45786301#6 45786301#7 45786301#8 45786301#9 45786301#10 45786301#11 45786301#12 -124186701#0 -309631702#1 -309631702#0 -51272618#7 E40 E49 -51272618#4 E24 E25 -51272618#1 E15 -E17 -559505781#5 -559505781#4 E30 -E26 -559505781#2 -559505781#1 -E28 -E27 -23328568#0 485053285#0 E35 E33 -E122 E84 51271000#0 51271000#1 E85 51271000#3 51271000#4 51271000#5 51271000#6 51271000#7 51271000#8 51271000#9 51271000#10 E87 26175437#1 26175437#2 26175437#3 26175437#4 26175437#5 26175437#6"/>
    </vehicle>
    <vehicle id="20" depart="20.00">
        <route edges="485067571#0 984928760#0 -984928760#0 -485067571#0 -124186699 -485053283 -1026459819#1 -1026459819#0 -E71 -23328570#13 -23328570#12 -23328570#11 -23328570#10 -23328570#9 -23328570#8 -23328570#7 -23328570#6 -23328570#5 -23328570#4 -23328570#3 -23328570#2 -23328570#1 -E45 E42 51270413#1 51270413#2 51270413#3 51270413#4 51270413#5 51270413#6 -E39 E14 51272633#1 51272633#2 51272633#3 166029223#0 166029223#1 166029223#2 166029223#3 -166029223#3"/>
    </vehicle>
    <vehicle id="21" depart="21.00">
        <route edges="-51200266#13 51200266#13 51200266#14 51200266#15 51200266#16 -91375465#3 -91375465#2 -91375465#1 -E4 E1 -72107992#1 -72107992#0 -72107997#4 -72107997#3 -72107997#2 -72107997#1 -72107997#0 -86371390 -124186701#2 -124186701#1 -124186701#0 -309631702#1 -309631702#0 -51272618#7 E40 E49 -51272618#4 E24 E25 -51272618#1 E15 -E17 -559505781#5 -559505781#4 E30 -E26 -559505781#2 -559505781#1 -E28 -E27 -23328568#0 -831144375#5 -E37 -E36 -E119 E115 E157 -831144375#1 -831144375#0 -932384166 -87225157#1 -87225157#0 -87225158 -51205183 48161566#6 48161566#7 48161566#8 48161566#9 52868854#0 52868855#0 52868855#1 -52868855#1"/>
    </vehicle>
    <vehicle id="22" depart="22.00">
        <route edges="-176437608#1 -176437608#0 -45780952#1 -E48 -E13 -478638718#1 E41 E14 51272633#1 51272633#2 51272633#3 166029223#0 166029223#1 51547955#0 51547955#1 51547958#0 51547958#1 51547958#2 -51548270#4"/>
    </vehicle>
    <vehicle id="23" depart="23.00">
        <route edges="-26175437#5 -26175437#4 -26175437#3 -26175437#2 -26175437#1 -E87 -51271000#10 -51271000#9 -51271000#8 -51271000#7 -51271000#6 -51271000#5 -51271000#4 -51271000#3 -E85 -51271000#1 -51271000#0 -E84 E122 -E33 -E35 -485053285#0 23328568#0 E27 E28 559505781#1 559505781#2 E26 -E30 559505781#4 559505781#5 E17 -E15 51272618#1 -E25 -E24 51272618#4 -E49 -E40 51272618#7 309631702#0 309631702#1 45326122#0 45326122#1 45326122#2 45326122#3 45326122#4 45326122#5 45326122#6 45326122#7 E98 45326122#9 -42243993#7 -42243993#6 -42243993#5 -42243993#4 -42243993#3 -42243993#2 -42243993#1 E5 193336887 51142637#0 51142637#1 51142637#2 -23328574#5 -23328574#4 -23328574#3 -23328574#2 -23328574#1 -E8 E7 -478638718#12 -146607495#3 -146607495#2 -146607495#1 -146607495#0 -176437608#18 -176437608#17 -176437608#16 -176437608#15 -52018803#2 -52018803#1 -52018803#0 -176437588#4 -176437588#3 -176437588#2 -176437588#1 -176437588#0 -52018802#14 -52018802#13"/>
    </vehicle>
    <vehicle id="24" depart="24.00">
        <route edges="401180903#1 -401180903#1 -401180903#0 -E57 -433769296#2 -433769296#1 -433769296#0 -559505747#5 -559505747#4 -559505747#3 -559505747#2 E61 E63 -207904727#12 -207904727#11 -207904727#10 -207904727#9 -207904727#8 -E65 -E32 -207904727#5 -207904727#4 -207904727#3 -207904727#2 -207904727#1 -E19 -E15 51272618#1 -E25 -E24 51272618#4 -E49 -E40 51272618#7 309631702#0 309631702#1 45326122#0 45326122#1 45326122#2 45326122#3 45326122#4 45326122#5 45326122#6 45326122#7 E98 45326122#9 -42243993#7 -42243993#6 -42243993#5 -42243993#4 -42243993#3 -42243993#2 -42243993#1 E5 -E6 -91375465#31 -91375465#30 -45324899#4 -45324899#3 -45324899#2 -45324899#1 -45324899#0 -45324704#1 -45324704#0 -75616603#9"/>
    </vehicle>
    <vehicle id="25" depart="25.00">
        <route edges="-72107997#2 -72107997#1 -72107997#0 -86371390 -124186701#2 -124186701#1 -124186701#0 -309631702#1 -309631702#0 -51272618#7 E40 E49 -51272618#4 E24 E25 -51272618#1 E15 -E17 -559505781#5 -559505781#4 E30 -E26 -559505781#2 -559505781#1 -E28 -E27 -23328568#0 485053285#0 E35 E33 -E122 E84 51271000#0 51271000#1 E85 51271000#3 51271000#4 51271000#5 51271000#6 51271000#7 51271000#8 51271000#9 51271000#10 E87 26175437#1 26175437#2 26175437#3 26175437#4 26175437#5 26175437#6 26175437#7 26175437#8 26175437#9 26175437#10 26175437#11 26175437#12 175455529 175455528#0 175455528#1 -51189360#4 -51189360#3 -51189360#2 -51189360#1"/>
    </vehicle>
    <vehicle id="26" depart="26.00">
        <route edges="-51748702#0 51748702#0 51748702#1 51748702#2 51748702#3 51748702#4 -51225886#1 -E23 -E24 51272618#4 -E49 -E40 51272618#7 309631702#0 309631702#1 124186701#0 124186701#1 124186701#2 86371390 72107997#0 72107997#1 72107997#2 72107997#3 72107997#4 72107992#0 72107992#1 -E1 E4 91375465#1 91375465#2 91375465#3 91375465#4 91375465#5 91375465#6 91375465#7 91375465#8 91375465#9 91375465#10 91375465#11 91375465#12 91375465#13"/>
    </vehicle>
    <vehicle id="27" depart="27.00">
        <route edges="436286016#7 436286016#8 436286016#9 436286016#10 436286016#11 51270415#5 51270415#6 51270415#7 -485067571#1 -485067571#0 -124186699 -485053283 -1026459819#1 -1026459819#0 -E71 -23328570#13 -23328570#12 -23328570#11 -23328570#10 -23328570#9 -23328570#8 -23328570#7 -23328570#6 -23328570#5 -23328570#4 -23328570#3 -23328570#2 -23328570#1 -E45 E42 51270413#1 51270413#2 51270413#3 51270413#4 478638719#0 478638719#1 478638719#2 478638719#3 478638719#4 478638719#5 478638719#6 1059305957#0 1059305957#1 1059305957#2 1059305957#3 1059305957#4 1059305957#5 1059305957#6 146588153#0 146588153#1 146588153#2 146588153#3 146588153#4 146588153#5 -39598219#6 -39598219#5 39598219#5"/>
    </vehicle>
    <vehicle id="28" depart="28.00">
        <route edges="-48161620#7 48161620#7 48161603#0 48161603#1 48161603#2 48161603#3 114925775#4 51130938#0 51130938#1 51130938#2 E38 E37 831144375#5 23328568#0 E27 E28 559505781#1 559505781#2 E26 -E30 559505781#4 559505781#5 E17 -E15 51272618#1 -E25 -E24 51272618#4 -E49 -E40 51272618#7 309631702#0 309631702#1 124186701#0 124186701#1 124186701#2 86371390 72107997#0 72107997#1 72107997#2 72107997#3 72107997#4 72107992#0 72107992#1 -E1 E4 91375465#1 91375465#2 91375465#3 -51200266#16 -51200266#15 -51200266#14 -51200266#13 -51200266#12 51398095#0 51398095#1 51398095#2 51398095#3 51398095#4 51398095#5 51398095#6"/>
    </vehicle>
    <vehicle id="29" depart="29.00">
        <route edges="-48135948#7 -48135948#6 -48135948#5 -48135948#4 48135949#0 48135949#1 48135949#2 48135949#3 E107 E108 E109 -485053287#10 -485053287#9 -485053287#8 -485053287#7 -485053287#6 -485053287#5 E101 E103 -485053287#2 E171 E93 -485053281#1 -485053281#0 -E89 -E167 -521697218#6 -E88 -521697218#3 -521697218#2 -521697218#1 E158 -E86 -51271000#10 -51271000#9 -51271000#8 -51271000#7 -51271000#6 -51271000#5 -51271000#4 -51271000#3 -E85 -51271000#1 -51271000#0 521706070#0 521706070#1 521706070#2 521706070#3 521706070#4 559505745#3 559505745#4 559505745#5 559505745#6 559505745#7 E78 -E18 -E77 559505746#0 E75 559505746#2 559505746#3 559505746#4 559505746#5 559505746#6 559505746#7 559505746#8 559505746#9 559505746#10 559505746#11 559505746#12 559505746#13 559505746#14 E62 -E61 559505747#2 559505747#3 559505747#4 559505747#5 433769296#0 433769296#1 433769296#2 E57 433769297#1 433769297#2 433769297#3 -808816611#1 -808816611#0"/>
    </vehicle>
    <vehicle id="30" depart="30.00">
        <route edges="E244 E164 197773683#9 -809043970#4 -809043970#3 809043970#3 809043970#4 -197773683#9 -E164 -E244 -197773683#7 -197773683#6 E176 -E106 -E101 485053287#5 485053287#6 485053287#7 485053287#8 485053287#9 485053287#10 -E109 E189 E191 -E110 E194 485053287#15 E195 -E111 -E196 -809043969#5 -809043969#4 -809043969#3 -809043969#2 -809043969#1 -809043969#0 459849643#0 459849644#0"/>
    </vehicle>
    <vehicle id="31" depart="31.00">
        <route edges="167423767#0 -167423767#0 -984925246#4 -984925246#3 -984925246#2 -984925246#1 -984925246#0 -37799038 167423766#0 167423766#1 167423766#2 E21 -E17 -559505781#5 -559505781#4 E30 -E26 -559505781#2 -559505781#1 -E28 -E27 -23328568#0 485053285#0 E35 E33 -E122 E84 51271000#0 51271000#1 E85 51271000#3 51271000#4 51271000#5 51271000#6 51271000#7 51271000#8 51271000#9 51271000#10 E86 -E158 521697218#1 521697218#2 521697218#3 E88 521697218#6 E167 E89 485053281#0 485053281#1 -E93 -E171 485053287#2 -E103 -E101 485053287#5 485053287#6 485053287#7 485053287#8 485053287#9 485053287#10 -E109 E189 E191 -E110 E194 485053287#15 E195 -E111 -E196 485053287#18 485053287#19 E199 E112 485053287#21 485053287#22"/>
    </vehicle>
    <vehicle id="32" depart="32.00">
        <route edges="56009507#3 56009507#4 1066008304 -1066008305 -56009506#0 85470045#0 85470045#1 -51818689#16 -51818689#15 -51818689#14 -51818689#13 -51818689#12 -51818689#11 -51818689#10 -51818689#9 -51818689#8 -51818689#7 -51818689#6 -51818689#5 -51818689#4 -51818689#3 -51818689#2 -51818689#1 -51818689#0 -478638721 86296553#2 86296553#3 86296553#4 86296553#5 86296553#6 E0 86296553#8 86296553#9 86296553#10 86296553#11 -E2 E1 -72107992#1 -72107992#0 -72107997#4 -72107997#3 -72107997#2 -72107997#1 -72107997#0 -86371390 -124186701#2 -124186701#1 -124186701#0 -309631702#1 -309631702#0 -51272618#7 E40 E49 -51272618#4 E24 E25 -51272618#1 E15 -E17 -559505781#5 -559505781#4 E30 -E26 -559505781#2 -559505781#1 -E28 -E27 -23328568#0 -831144375#5 -E37 -E36 -E119 E115 E157 -831144375#1 -831144375#0 -932384166 -87225157#1 -87225157#0 -87225158 -51205183 48161566#6 48161566#7 48161566#8 48161566#9 48161566#10 48161566#11 48161566#12 48161566#13 48161566#14 48161566#15 48161566#16 48161566#17 48161566#18 48161566#19 48161566#20 45781461#2 45781461#3 -91009081 45781497#9 E136 E137 45781497#11 -415418918#4 51984185#0 51984185#1 51984185#2 51984185#3 51984185#4"/>
    </vehicle>
    <vehicle id="33" depart="33.00">
        <route edges="-51200266#7 -51200266#6 -51200266#5 -51200266#4 -51200266#3 -51200266#2 146588339#3 146588339#4 86296553#6 E0 86296553#8 86296553#9 86296553#10 86296553#11 -E2 E1 -72107992#1 -72107992#0 -72107997#4 -72107997#3 -72107997#2 -72107997#1 -72107997#0 -86371390 -124186701#2 -124186701#1 -124186701#0 -309631702#1 -309631702#0 -51272618#7 E40 E49 -51272618#4 E24 E25 -51272618#1 E15 -E17 -559505781#5 -559505781#4 E30 -E26 -559505781#2 -559505781#1 -E28 -E27 -23328568#0 -831144375#5 -E37 -E38 -51130938#2 -51130938#1 -51130938#0 114925775#5 48161585#0 48161585#1 48161585#2 48161585#3 48161585#4 -91006984#2 -91006984#1 -91006984#0 -86127799#2 -86127799#1 -86127799#0 -48161586#3 -48161586#2 -48161586#1 -48161586#0 91999878#0 91999878#1 -146588039#9 -146588039#8 -146588039#7"/>
    </vehicle>
    <vehicle id="34" depart="34.00">
        <route edges="-549673942#2 549673942#2 48135948#8 48135948#9 809043969#0 809043969#1 809043969#2 809043969#3 809043969#4 809043969#5 485053287#18 485053287#19 E199 E112 485053287#21 485053287#22 51826556#0 51826556#1 51826556#2 51826571#0 51826571#1 26175435#4 26175435#5 26175435#6 26175435#7 E60 -E203 E204 E67 415418923#1 415418923#2 415418923#3 415418923#4 415418923#5 415418923#6 415418918#0 415418918#1 415418918#2 415418918#3 415418918#4 415418918#5 415418914#0 51984193#0 51984193#1 -51984193#1"/>
    </vehicle>
    <vehicle id="35" depart="35.00">
        <route edges="-51138154#2 -51138154#1 -51138154#0 -26175437#5 -26175437#4 -26175437#3 -26175437#2 -26175437#1 -E87 -51271000#10 -51271000#9 -51271000#8 -51271000#7 -51271000#6 -51271000#5 -51271000#4 -51271000#3 -E85 -51271000#1 -51271000#0 -E84 E122 -E33 -E35 -485053285#0 23328568#0 E27 E28 559505781#1 559505781#2 E26 -E30 559505781#4 559505781#5 E17 -E15 51272618#1 -E25 -E24 51272618#4 -E49 -E40 51272618#7 309631702#0 309631702#1 124186701#0 124186701#1 124186701#2 86371390 72107997#0 72107997#1 72107997#2 72107997#3 72107997#4 72107992#0 72107992#1 -E1 E2 -86296553#11 -86296553#10 -86296553#9 -86296553#8 -E0 -86296553#6 -146588339#4 -146588339#3 -146588339#2 -91375481#4 -91375481#3 -91375527#1 -91375527#0 91375527#0"/>
    </vehicle>
    <vehicle id="36" depart="36.00">
        <route edges="741815385#0 741815385#1 741815385#2 741815385#3 -51683157#3 -51683157#2 -51683157#1 -51683157#0 175960788#2 E47 309631702#0 309631702#1 124186701#0 124186701#1 124186701#2 86371390 72107997#0 72107997#1 72107997#2 72107997#3 72107997#4 72107992#0 72107992#1 -E1 E2 -86296553#11 -86296553#10 -86296553#9 -86296553#8 -E0 -86296553#6 -86296553#5 -86296553#4 -86296553#3 -86296553#2 -86296553#1 -86296553#0 -51272633#4 166029223#0 166029223#1 166029223#2 166029223#3 166029223#4 166029223#5 -75616603#26 -75616603#25 -75616603#24 -75616603#23 -75616603#22 -75616603#21 -75616603#20 56009483#0 -56009483#0"/>
    </vehicle>
    <vehicle id="37" depart="37.00">
        <route edges="45781497#3 45781497#4 45781497#5 45781497#6 E139 E143 45781497#8 45781497#9 E136 E137 45781497#11 415418918#5 415418914#0 E148 E133 E150 415418914#2 E151 95949167 -E156 932384167#1 932384166 831144375#0 831144375#1 -E157 -E115 E119 E36 E37 831144375#5 23328568#0 E27 E28 559505781#1 559505781#2 E26 -E30 559505781#4 559505781#5 E17 -E15 51272618#1 -E25 -E24 51272618#4 -E49 -E40 51272618#7 309631702#0 309631702#1 124186701#0 124186701#1 124186701#2 86371390 72107997#0 72107997#1 72107997#2 72107997#3 72107997#4 72107992#0 72107992#1 -E1 E2 -86296553#11 -86296553#10 -86296553#9"/>
    </vehicle>
    <vehicle id="38" depart="38.00">
        <route edges="86127780#1 -75616582#2 75616582#2 -86127780#1 -86127780#0 -27475286#6 -27475286#5 -27475286#4 -27475286#3 -27475286#2 -27475286#1 -27475286#0 146587942#4 49743610 146587943#10 146587943#11 -55353717#1 -E92 146587943#13 -485053281#1 -485053281#0 -E89 -E167 -521697218#6 -E88 -521697218#3 -521697218#2 -521697218#1 E158 -E86 -51271000#10 -51271000#9 -51271000#8 -51271000#7 -51271000#6 -51271000#5 -51271000#4 -51271000#3 -E85 -51271000#1 -51271000#0 521706070#0 521706070#1 521706070#2 521706070#3 521706070#4 -559505745#2 -559505745#1 -559505745#0 -26175432#4 -26175432#3 -26175432#2 -26175432#1 -E29"/>
    </vehicle>
    <vehicle id="39" depart="39.00">
        <route edges="-51728817#1 -51728817#0 -415418936#1 -415418936#0 -48135947#2 -48135947#1 -48135947#0 -26175435#1 -26175435#0 -485053287#23 -485053287#22 -485053287#21 -E112 -E199 -485053287#19 -485053287#18 E196 E111 -E195 -485053287#15 -E194 E110 -E191 -E189 E109 -485053287#10 -485053287#9 -485053287#8 -485053287#7 -485053287#6 -485053287#5 E101 E103 -485053287#2 E171 E93 -485053281#1 -485053281#0 -E89 -E167 -521697218#6 -E88 -521697218#3 -521697218#2 -521697218#1 E158 -E86 -51271000#10 -51271000#9 -51271000#8 -51271000#7 -51271000#6 -51271000#5 -51271000#4 -51271000#3 -E85 -51271000#1 -51271000#0 -E84 E122 -E33 -E35 -485053285#0 23328568#0 E27 E28 559505781#1 559505781#2 E26 -E30 559505781#4 559505781#5 E17 E19 207904727#1 207904727#2 207904727#3 51139284#0 51139284#1 51702095#0 51702095#1 51702095#2 -51702095#2"/>
    </vehicle>
    <vehicle id="40" depart="40.00">