<?xml version="1.0" encoding="UTF-8"?>

<!-- generated on 2023-07-21 12:38:48 by Eclipse SUMO netedit Version 1.18.0
-->

<additional xmlns:xsi="http://www.w3.org/2001/XMLSchema-instance" xsi:noNamespaceSchemaLocation="http://sumo.dlr.de/xsd/additional_file.xsd">
    <!-- TAZs -->
    <taz id="taz_0" shape="3403.72,9862.71 316.64,7311.76 757.65,4466.80 1484.02,3602.07 3766.91,3437.77 6949.11,6170.31 5868.20,9300.64 3507.49,10001.07 3403.72,9862.71" color="blue">
        <tazSource id="-1004738178#0" weight="1.00"/>
        <tazSink id="-1004738178#0" weight="1.00"/>
        <tazSource id="-1004738178#1" weight="1.00"/>
        <tazSink id="-1004738178#1" weight="1.00"/>
        <tazSource id="-100637109" weight="1.00"/>
        <tazSink id="-100637109" weight="1.00"/>
        <tazSource id="-100639968" weight="1.00"/>
        <tazSink id="-100639968" weight="1.00"/>
        <tazSource id="-100639972#0" weight="1.00"/>
        <tazSink id="-100639972#0" weight="1.00"/>
        <tazSource id="-100639972#1" weight="1.00"/>
        <tazSink id="-100639972#1" weight="1.00"/>
        <tazSource id="-100639972#2" weight="1.00"/>
        <tazSink id="-100639972#2" weight="1.00"/>
        <tazSource id="-100639972#3" weight="1.00"/>
        <tazSink id="-100639972#3" weight="1.00"/>
        <tazSource id="-100639977" weight="1.00"/>
        <tazSink id="-100639977" weight="1.00"/>
        <tazSource id="-1017727659#0" weight="1.00"/>
        <tazSink id="-1017727659#0" weight="1.00"/>
        <tazSource id="-1017727659#1" weight="1.00"/>
        <tazSink id="-1017727659#1" weight="1.00"/>
        <tazSource id="-1017727659#2" weight="1.00"/>
        <tazSink id="-1017727659#2" weight="1.00"/>
        <tazSource id="-1026459819#0" weight="1.00"/>
        <tazSink id="-1026459819#0" weight="1.00"/>
        <tazSource id="-1026459819#1" weight="1.00"/>
        <tazSink id="-1026459819#1" weight="1.00"/>
        <tazSource id="-1028131964#0" weight="1.00"/>
        <tazSink id="-1028131964#0" weight="1.00"/>
        <tazSource id="-1028131964#1" weight="1.00"/>
        <tazSink id="-1028131964#1" weight="1.00"/>
        <tazSource id="-1028131964#2" weight="1.00"/>
        <tazSink id="-1028131964#2" weight="1.00"/>
        <tazSource id="-1028131964#3" weight="1.00"/>
        <tazSink id="-1028131964#3" weight="1.00"/>
        <tazSource id="-1055599239" weight="1.00"/>
        <tazSink id="-1055599239" weight="1.00"/>
        <tazSource id="-1055599241" weight="1.00"/>
        <tazSink id="-1055599241" weight="1.00"/>
        <tazSource id="-1055599243#0" weight="1.00"/>
        <tazSink id="-1055599243#0" weight="1.00"/>
        <tazSource id="-1055599243#1" weight="1.00"/>
        <tazSink id="-1055599243#1" weight="1.00"/>
        <tazSource id="-105570374" weight="1.00"/>
        <tazSink id="-105570374" weight="1.00"/>
        <tazSource id="-105592908#0" weight="1.00"/>
        <tazSink id="-105592908#0" weight="1.00"/>
        <tazSource id="-105592908#1" weight="1.00"/>
        <tazSink id="-105592908#1" weight="1.00"/>
        <tazSource id="-105593186" weight="1.00"/>
        <tazSink id="-105593186" weight="1.00"/>
        <tazSource id="-1059305957#0" weight="1.00"/>
        <tazSink id="-1059305957#0" weight="1.00"/>
        <tazSource id="-1059305957#1" weight="1.00"/>
        <tazSink id="-1059305957#1" weight="1.00"/>
        <tazSource id="-1059305957#2" weight="1.00"/>
        <tazSink id="-1059305957#2" weight="1.00"/>
        <tazSource id="-1059305957#3" weight="1.00"/>
        <tazSink id="-1059305957#3" weight="1.00"/>
        <tazSource id="-1059305957#4" weight="1.00"/>
        <tazSink id="-1059305957#4" weight="1.00"/>
        <tazSource id="-1059305957#5" weight="1.00"/>
        <tazSink id="-1059305957#5" weight="1.00"/>
        <tazSource id="-1059305957#6" weight="1.00"/>
        <tazSink id="-1059305957#6" weight="1.00"/>
        <tazSource id="-1059305958#0" weight="1.00"/>
        <tazSink id="-1059305958#0" weight="1.00"/>
        <tazSource id="-1059305958#1" weight="1.00"/>
        <tazSink id="-1059305958#1" weight="1.00"/>
        <tazSource id="-1059305959" weight="1.00"/>
        <tazSink id="-1059305959" weight="1.00"/>
        <tazSource id="-1059305960#0" weight="1.00"/>
        <tazSink id="-1059305960#0" weight="1.00"/>
        <tazSource id="-1059305960#1" weight="1.00"/>
        <tazSink id="-1059305960#1" weight="1.00"/>
        <tazSource id="-1059305960#2" weight="1.00"/>
        <tazSink id="-1059305960#2" weight="1.00"/>
        <tazSource id="-1061590138#0" weight="1.00"/>
        <tazSink id="-1061590138#0" weight="1.00"/>
        <tazSource id="-1061590138#1" weight="1.00"/>
        <tazSink id="-1061590138#1" weight="1.00"/>
        <tazSource id="-1062803048" weight="1.00"/>
        <tazSink id="-1062803048" weight="1.00"/>
        <tazSource id="-1062804789#0" weight="1.00"/>
        <tazSink id="-1062804789#0" weight="1.00"/>
        <tazSource id="-1062804789#1" weight="1.00"/>
        <tazSink id="-1062804789#1" weight="1.00"/>
        <tazSource id="-1062804790" weight="1.00"/>
        <tazSink id="-1062804790" weight="1.00"/>
        <tazSource id="-1066008293" weight="1.00"/>
        <tazSink id="-1066008293" weight="1.00"/>
        <tazSource id="-1066008294#0" weight="1.00"/>
        <tazSink id="-1066008294#0" weight="1.00"/>
        <tazSource id="-1066008294#1" weight="1.00"/>
        <tazSink id="-1066008294#1" weight="1.00"/>
        <tazSource id="-1066008303" weight="1.00"/>
        <tazSink id="-1066008303" weight="1.00"/>
        <tazSource id="-1066008304" weight="1.00"/>
        <tazSink id="-1066008304" weight="1.00"/>
        <tazSource id="-1066008305" weight="1.00"/>
        <tazSink id="-1066008305" weight="1.00"/>
        <tazSource id="-1066473171" weight="1.00"/>
        <tazSink id="-1066473171" weight="1.00"/>
        <tazSource id="-1066473172#0" weight="1.00"/>
        <tazSink id="-1066473172#0" weight="1.00"/>
        <tazSource id="-1066473172#1" weight="1.00"/>
        <tazSink id="-1066473172#1" weight="1.00"/>
        <tazSource id="-1066473172#2" weight="1.00"/>
        <tazSink id="-1066473172#2" weight="1.00"/>
        <tazSource id="-1066473172#3" weight="1.00"/>
        <tazSink id="-1066473172#3" weight="1.00"/>
        <tazSource id="-1066473172#4" weight="1.00"/>
        <tazSink id="-1066473172#4" weight="1.00"/>
        <tazSource id="-1066473172#5" weight="1.00"/>
        <tazSink id="-1066473172#5" weight="1.00"/>
        <tazSource id="-1066473174#0" weight="1.00"/>
        <tazSink id="-1066473174#0" weight="1.00"/>
        <tazSource id="-1066473174#1" weight="1.00"/>
        <tazSink id="-1066473174#1" weight="1.00"/>
        <tazSource id="-1071312625" weight="1.00"/>
        <tazSink id="-1071312625" weight="1.00"/>
        <tazSource id="-1071823872#0" weight="1.00"/>
        <tazSink id="-1071823872#0" weight="1.00"/>
        <tazSource id="-1071823872#1" weight="1.00"/>
        <tazSink id="-1071823872#1" weight="1.00"/>
        <tazSource id="-1071823872#2" weight="1.00"/>
        <tazSink id="-1071823872#2" weight="1.00"/>
        <tazSource id="-1073568559" weight="1.00"/>
        <tazSink id="-1073568559" weight="1.00"/>
        <tazSource id="-1073568560" weight="1.00"/>
        <tazSink id="-1073568560" weight="1.00"/>
        <tazSource id="-1073568561#0" weight="1.00"/>
        <tazSink id="-1073568561#0" weight="1.00"/>
        <tazSource id="-1073568561#1" weight="1.00"/>
        <tazSink id="-1073568561#1" weight="1.00"/>
        <tazSource id="-1073568572" weight="1.00"/>
        <tazSink id="-1073568572" weight="1.00"/>
        <tazSource id="-1082305771" weight="1.00"/>
        <tazSink id="-1082305771" weight="1.00"/>
        <tazSource id="-1102374775#0" weight="1.00"/>
        <tazSink id="-1102374775#0" weight="1.00"/>
        <tazSource id="-1102374775#1" weight="1.00"/>
        <tazSink id="-1102374775#1" weight="1.00"/>
        <tazSource id="-1102374775#2" weight="1.00"/>
        <tazSink id="-1102374775#2" weight="1.00"/>
        <tazSource id="-1102374775#3" weight="1.00"/>
        <tazSink id="-1102374775#3" weight="1.00"/>
        <tazSource id="-1102374776#0" weight="1.00"/>
        <tazSink id="-1102374776#0" weight="1.00"/>
        <tazSource id="-1102374776#1" weight="1.00"/>
        <tazSink id="-1102374776#1" weight="1.00"/>
        <tazSource id="-1102375880#0" weight="1.00"/>
        <tazSink id="-1102375880#0" weight="1.00"/>
        <tazSource id="-1102375880#1" weight="1.00"/>
        <tazSink id="-1102375880#1" weight="1.00"/>
        <tazSource id="-1102375881" weight="1.00"/>
        <tazSink id="-1102375881" weight="1.00"/>
        <tazSource id="-1103877566#0" weight="1.00"/>
        <tazSink id="-1103877566#0" weight="1.00"/>
        <tazSource id="-1103877566#1" weight="1.00"/>
        <tazSink id="-1103877566#1" weight="1.00"/>
        <tazSource id="-1103877566#2" weight="1.00"/>
        <tazSink id="-1103877566#2" weight="1.00"/>
        <tazSource id="-1103877571" weight="1.00"/>
        <tazSink id="-1103877571" weight="1.00"/>
        <tazSource id="-1103877575#0" weight="1.00"/>
        <tazSink id="-1103877575#0" weight="1.00"/>
        <tazSource id="-1103877575#1" weight="1.00"/>
        <tazSink id="-1103877575#1" weight="1.00"/>
        <tazSource id="-1103877578#0" weight="1.00"/>
        <tazSink id="-1103877578#0" weight="1.00"/>
        <tazSource id="-1103877578#1" weight="1.00"/>
        <tazSink id="-1103877578#1" weight="1.00"/>
        <tazSource id="-1103877579#0" weight="1.00"/>
        <tazSink id="-1103877579#0" weight="1.00"/>
        <tazSource id="-1103877579#1" weight="1.00"/>
        <tazSink id="-1103877579#1" weight="1.00"/>
        <tazSource id="-1103877590" weight="1.00"/>
        <tazSink id="-1103877590" weight="1.00"/>
        <tazSource id="-1103877591" weight="1.00"/>
        <tazSink id="-1103877591" weight="1.00"/>
        <tazSource id="-1103877596" weight="1.00"/>
        <tazSink id="-1103877596" weight="1.00"/>
        <tazSource id="-1103877597#0" weight="1.00"/>
        <tazSink id="-1103877597#0" weight="1.00"/>
        <tazSource id="-1103877597#1" weight="1.00"/>
        <tazSink id="-1103877597#1" weight="1.00"/>
        <tazSource id="-1103877598" weight="1.00"/>
        <tazSink id="-1103877598" weight="1.00"/>
        <tazSource id="-1104721959#0" weight="1.00"/>
        <tazSink id="-1104721959#0" weight="1.00"/>
        <tazSource id="-1104721959#1" weight="1.00"/>
        <tazSink id="-1104721959#1" weight="1.00"/>
        <tazSource id="-1104721959#2" weight="1.00"/>
        <tazSink id="-1104721959#2" weight="1.00"/>
        <tazSource id="-1104721959#3" weight="1.00"/>
        <tazSink id="-1104721959#3" weight="1.00"/>
        <tazSource id="-1104721960" weight="1.00"/>
        <tazSink id="-1104721960" weight="1.00"/>
        <tazSource id="-112293973#0" weight="1.00"/>
        <tazSink id="-112293973#0" weight="1.00"/>
        <tazSource id="-112293973#1" weight="1.00"/>
        <tazSink id="-112293973#1" weight="1.00"/>
        <tazSource id="-112293977" weight="1.00"/>
        <tazSink id="-112293977" weight="1.00"/>
        <tazSource id="-112293987" weight="1.00"/>
        <tazSink id="-112293987" weight="1.00"/>
        <tazSource id="-112293993#0" weight="1.00"/>
        <tazSink id="-112293993#0" weight="1.00"/>
        <tazSource id="-112293993#1" weight="1.00"/>
        <tazSink id="-112293993#1" weight="1.00"/>
        <tazSource id="-112293994" weight="1.00"/>
        <tazSink id="-112293994" weight="1.00"/>
        <tazSource id="-112293997" weight="1.00"/>
        <tazSink id="-112293997" weight="1.00"/>
        <tazSource id="-113233895#0" weight="1.00"/>
        <tazSink id="-113233895#0" weight="1.00"/>
        <tazSource id="-113233895#1" weight="1.00"/>
        <tazSink id="-113233895#1" weight="1.00"/>
        <tazSource id="-113233895#2" weight="1.00"/>
        <tazSink id="-113233895#2" weight="1.00"/>
        <tazSource id="-114925739" weight="1.00"/>
        <tazSink id="-114925739" weight="1.00"/>
        <tazSource id="-114925755" weight="1.00"/>
        <tazSink id="-114925755" weight="1.00"/>
        <tazSource id="-114925762#0" weight="1.00"/>
        <tazSink id="-114925762#0" weight="1.00"/>
        <tazSource id="-114925762#1" weight="1.00"/>
        <tazSink id="-114925762#1" weight="1.00"/>
        <tazSource id="-114925775#0" weight="1.00"/>
        <tazSink id="-114925775#0" weight="1.00"/>
        <tazSource id="-114925775#1" weight="1.00"/>
        <tazSink id="-114925775#1" weight="1.00"/>
        <tazSource id="-114925775#2" weight="1.00"/>
        <tazSink id="-114925775#2" weight="1.00"/>
        <tazSource id="-114925775#3" weight="1.00"/>
        <tazSink id="-114925775#3" weight="1.00"/>
        <tazSource id="-114925775#4" weight="1.00"/>
        <tazSink id="-114925775#4" weight="1.00"/>
        <tazSource id="-114925775#5" weight="1.00"/>
        <tazSink id="-114925775#5" weight="1.00"/>
        <tazSource id="-114925775#7" weight="1.00"/>
        <tazSink id="-114925775#7" weight="0.00"/>
        <tazSource id="-114925785" weight="1.00"/>
        <tazSink id="-114925785" weight="1.00"/>
        <tazSource id="-114925789#0" weight="1.00"/>
        <tazSink id="-114925789#0" weight="1.00"/>
        <tazSource id="-114925789#1" weight="1.00"/>
        <tazSink id="-114925789#1" weight="1.00"/>
        <tazSource id="-114925789#2" weight="1.00"/>
        <tazSink id="-114925789#2" weight="1.00"/>
        <tazSource id="-114925790" weight="1.00"/>
        <tazSink id="-114925790" weight="1.00"/>
        <tazSource id="-1150457064" weight="1.00"/>
        <tazSink id="-1150457064" weight="1.00"/>
        <tazSource id="-1150457068" weight="1.00"/>
        <tazSink id="-1150457068" weight="1.00"/>
        <tazSource id="-1150457074#0" weight="1.00"/>
        <tazSink id="-1150457074#0" weight="1.00"/>
        <tazSource id="-1150457074#1" weight="1.00"/>
        <tazSink id="-1150457074#1" weight="1.00"/>
        <tazSource id="-1150457075#0" weight="1.00"/>
        <tazSink id="-1150457075#0" weight="1.00"/>
        <tazSource id="-1150457075#1" weight="1.00"/>
        <tazSink id="-1150457075#1" weight="1.00"/>
        <tazSource id="-1150658484#0" weight="1.00"/>
        <tazSink id="-1150658484#0" weight="1.00"/>
        <tazSource id="-1150658484#1" weight="1.00"/>
        <tazSink id="-1150658484#1" weight="1.00"/>
        <tazSource id="-1150669484" weight="1.00"/>
        <tazSink id="-1150669484" weight="1.00"/>
        <tazSource id="-1150669487" weight="1.00"/>
        <tazSink id="-1150669487" weight="1.00"/>
        <tazSource id="-1150669488" weight="1.00"/>
        <tazSink id="-1150669488" weight="1.00"/>
        <tazSource id="-115494575#0" weight="1.00"/>
        <tazSink id="-115494575#0" weight="1.00"/>
        <tazSource id="-115494575#1" weight="1.00"/>
        <tazSink id="-115494575#1" weight="1.00"/>
        <tazSource id="-1156555013#0" weight="1.00"/>
        <tazSink id="-1156555013#0" weight="1.00"/>
        <tazSource id="-1156555013#1" weight="1.00"/>
        <tazSink id="-1156555013#1" weight="1.00"/>
        <tazSource id="-1156555014" weight="1.00"/>
        <tazSink id="-1156555014" weight="1.00"/>
        <tazSource id="-1156555015" weight="1.00"/>
        <tazSink id="-1156555015" weight="1.00"/>
        <tazSource id="-1160836017#0" weight="1.00"/>
        <tazSink id="-1160836017#0" weight="1.00"/>
        <tazSource id="-1160836017#1" weight="1.00"/>
        <tazSink id="-1160836017#1" weight="1.00"/>
        <tazSource id="-1160836018#0" weight="1.00"/>
        <tazSink id="-1160836018#0" weight="1.00"/>
        <tazSource id="-1160836018#1" weight="1.00"/>
        <tazSink id="-1160836018#1" weight="1.00"/>
        <tazSource id="-1160836018#2" weight="1.00"/>
        <tazSink id="-1160836018#2" weight="1.00"/>
        <tazSource id="-1160836018#3" weight="1.00"/>
        <tazSink id="-1160836018#3" weight="1.00"/>
        <tazSource id="-1160836019#0" weight="1.00"/>
        <tazSink id="-1160836019#0" weight="1.00"/>
        <tazSource id="-1160836019#1" weight="1.00"/>
        <tazSink id="-1160836019#1" weight="1.00"/>
        <tazSource id="-1160836027#0" weight="1.00"/>
        <tazSink id="-1160836027#0" weight="1.00"/>
        <tazSource id="-1160836027#1" weight="1.00"/>
        <tazSink id="-1160836027#1" weight="1.00"/>
        <tazSource id="-1162961181#0" weight="1.00"/>
        <tazSink id="-1162961181#0" weight="1.00"/>
        <tazSource id="-1162961181#1" weight="1.00"/>
        <tazSink id="-1162961181#1" weight="1.00"/>
        <tazSource id="-1163053122" weight="1.00"/>
        <tazSink id="-1163053122" weight="1.00"/>
        <tazSource id="-116618949#0" weight="1.00"/>
        <tazSink id="-116618949#0" weight="1.00"/>
        <tazSource id="-116618949#1" weight="1.00"/>
        <tazSink id="-116618949#1" weight="1.00"/>
        <tazSource id="-116618949#2" weight="1.00"/>
        <tazSink id="-116618949#2" weight="1.00"/>
        <tazSource id="-116618950" weight="1.00"/>
        <tazSink id="-116618950" weight="1.00"/>
        <tazSource id="-116618951#0" weight="1.00"/>
        <tazSink id="-116618951#0" weight="1.00"/>
        <tazSource id="-116618951#1" weight="1.00"/>
        <tazSink id="-116618951#1" weight="1.00"/>
        <tazSource id="-116618951#2" weight="1.00"/>
        <tazSink id="-116618951#2" weight="1.00"/>
        <tazSource id="-116618951#3" weight="1.00"/>
        <tazSink id="-116618951#3" weight="1.00"/>
        <tazSource id="-116619833#0" weight="1.00"/>
        <tazSink id="-116619833#0" weight="1.00"/>
        <tazSource id="-116619833#1" weight="1.00"/>
        <tazSink id="-116619833#1" weight="1.00"/>
        <tazSource id="-116619833#2" weight="1.00"/>
        <tazSink id="-116619833#2" weight="1.00"/>
        <tazSource id="-1169236649#0" weight="1.00"/>
        <tazSink id="-1169236649#0" weight="1.00"/>
        <tazSource id="-1169236649#1" weight="1.00"/>
        <tazSink id="-1169236649#1" weight="1.00"/>
        <tazSource id="-1169236656#0" weight="1.00"/>
        <tazSink id="-1169236656#0" weight="1.00"/>
        <tazSource id="-1169236656#1" weight="1.00"/>
        <tazSink id="-1169236656#1" weight="1.00"/>
        <tazSource id="-1169236656#2" weight="1.00"/>
        <tazSink id="-1169236656#2" weight="1.00"/>
        <tazSource id="-119450261" weight="1.00"/>
        <tazSink id="-119450261" weight="1.00"/>
        <tazSource id="-124186699" weight="1.00"/>
        <tazSink id="-124186699" weight="1.00"/>
        <tazSource id="-124186701#0" weight="1.00"/>
        <tazSink id="-124186701#0" weight="1.00"/>
        <tazSource id="-124186701#1" weight="1.00"/>
        <tazSink id="-124186701#1" weight="1.00"/>
        <tazSource id="-124186701#2" weight="1.00"/>
        <tazSink id="-124186701#2" weight="1.00"/>
        <tazSource id="-127703117#0" weight="1.00"/>
        <tazSink id="-127703117#0" weight="1.00"/>
        <tazSource id="-127703117#1" weight="1.00"/>
        <tazSink id="-127703117#1" weight="1.00"/>
        <tazSource id="-127703117#2" weight="1.00"/>
        <tazSink id="-127703117#2" weight="1.00"/>
        <tazSource id="-127703117#3" weight="1.00"/>
        <tazSink id="-127703117#3" weight="1.00"/>
        <tazSource id="-127703117#4" weight="1.00"/>
        <tazSink id="-127703117#4" weight="1.00"/>
        <tazSource id="-127703117#5" weight="1.00"/>
        <tazSink id="-127703117#5" weight="1.00"/>
        <tazSource id="-127703117#6" weight="1.00"/>
        <tazSink id="-127703117#6" weight="1.00"/>
        <tazSource id="-129301610#0" weight="1.00"/>
        <tazSink id="-129301610#0" weight="1.00"/>
        <tazSource id="-129301610#1" weight="1.00"/>
        <tazSink id="-129301610#1" weight="1.00"/>
        <tazSource id="-129301610#2" weight="1.00"/>
        <tazSink id="-129301610#2" weight="1.00"/>
        <tazSource id="-129301611" weight="1.00"/>
        <tazSink id="-129301611" weight="1.00"/>
        <tazSource id="-129322364#0" weight="1.00"/>
        <tazSink id="-129322364#0" weight="1.00"/>
        <tazSource id="-129322364#1" weight="1.00"/>
        <tazSink id="-129322364#1" weight="1.00"/>
        <tazSource id="-130102988#0" weight="1.00"/>
        <tazSink id="-130102988#0" weight="1.00"/>
        <tazSource id="-130102988#1" weight="1.00"/>
        <tazSink id="-130102988#1" weight="1.00"/>
        <tazSource id="-130729276" weight="1.00"/>
        <tazSink id="-130729276" weight="1.00"/>
        <tazSource id="-130729277#0" weight="1.00"/>
        <tazSink id="-130729277#0" weight="1.00"/>
        <tazSource id="-130729277#1" weight="1.00"/>
        <tazSink id="-130729277#1" weight="1.00"/>
        <tazSource id="-130729278#0" weight="1.00"/>
        <tazSink id="-130729278#0" weight="1.00"/>
        <tazSource id="-130729278#1" weight="1.00"/>
        <tazSink id="-130729278#1" weight="1.00"/>
        <tazSource id="-130729278#2" weight="1.00"/>
        <tazSink id="-130729278#2" weight="1.00"/>
        <tazSource id="-130729278#3" weight="1.00"/>
        <tazSink id="-130729278#3" weight="1.00"/>
        <tazSource id="-130729278#4" weight="1.00"/>
        <tazSink id="-130729278#4" weight="1.00"/>
        <tazSource id="-130729278#5" weight="1.00"/>
        <tazSink id="-130729278#5" weight="1.00"/>
        <tazSource id="-130729278#6" weight="1.00"/>
        <tazSink id="-130729278#6" weight="1.00"/>
        <tazSource id="-130729278#7" weight="1.00"/>
        <tazSink id="-130729278#7" weight="1.00"/>
        <tazSource id="-130858919#0" weight="1.00"/>
        <tazSink id="-130858919#0" weight="1.00"/>
        <tazSource id="-130858919#1" weight="1.00"/>
        <tazSink id="-130858919#1" weight="1.00"/>
        <tazSource id="-130858923#0" weight="1.00"/>
        <tazSink id="-130858923#0" weight="1.00"/>
        <tazSource id="-130858923#1" weight="1.00"/>
        <tazSink id="-130858923#1" weight="1.00"/>
        <tazSource id="-130858925#0" weight="1.00"/>
        <tazSink id="-130858925#0" weight="1.00"/>
        <tazSource id="-130858925#1" weight="1.00"/>
        <tazSink id="-130858925#1" weight="1.00"/>
        <tazSource id="-130858925#2" weight="1.00"/>
        <tazSink id="-130858925#2" weight="1.00"/>
        <tazSource id="-132927696" weight="1.00"/>
        <tazSink id="-132927696" weight="1.00"/>
        <tazSource id="-132995614#0" weight="1.00"/>
        <tazSink id="-132995614#0" weight="1.00"/>
        <tazSource id="-132995614#1" weight="1.00"/>
        <tazSink id="-132995614#1" weight="1.00"/>
        <tazSource id="-132995614#2" weight="1.00"/>
        <tazSink id="-132995614#2" weight="1.00"/>
        <tazSource id="-133052795#2" weight="1.00"/>
        <tazSink id="-133052795#2" weight="1.00"/>
        <tazSource id="-133052795#3" weight="1.00"/>
        <tazSink id="-133052795#3" weight="1.00"/>
        <tazSource id="-133052799#0" weight="1.00"/>
        <tazSink id="-133052799#0" weight="1.00"/>
        <tazSource id="-133052799#1" weight="1.00"/>
        <tazSink id="-133052799#1" weight="1.00"/>
        <tazSource id="-133052800" weight="1.00"/>
        <tazSink id="-133052800" weight="1.00"/>
        <tazSource id="-133052801#0" weight="1.00"/>
        <tazSink id="-133052801#0" weight="1.00"/>
        <tazSource id="-133052801#1" weight="1.00"/>
        <tazSink id="-133052801#1" weight="1.00"/>
        <tazSource id="-133052801#2" weight="1.00"/>
        <tazSink id="-133052801#2" weight="1.00"/>
        <tazSource id="-135632927#0" weight="1.00"/>
        <tazSink id="-135632927#0" weight="1.00"/>
        <tazSource id="-135632927#1" weight="1.00"/>
        <tazSink id="-135632927#1" weight="1.00"/>
        <tazSource id="-135651991#0" weight="1.00"/>
        <tazSink id="-135651991#0" weight="1.00"/>
        <tazSource id="-135651991#1" weight="1.00"/>
        <tazSink id="-135651991#1" weight="1.00"/>
        <tazSource id="-135652001#0" weight="1.00"/>
        <tazSink id="-135652001#0" weight="1.00"/>
        <tazSource id="-135652001#1" weight="1.00"/>
        <tazSink id="-135652001#1" weight="1.00"/>
        <tazSource id="-135652001#2" weight="1.00"/>
        <tazSink id="-135652001#2" weight="1.00"/>
        <tazSource id="-135652005#0" weight="1.00"/>
        <tazSink id="-135652005#0" weight="1.00"/>
        <tazSource id="-135652005#1" weight="1.00"/>
        <tazSink id="-135652005#1" weight="1.00"/>
        <tazSource id="-135652005#2" weight="1.00"/>
        <tazSink id="-135652005#2" weight="1.00"/>
        <tazSource id="-135652005#3" weight="1.00"/>
        <tazSink id="-135652005#3" weight="1.00"/>
        <tazSource id="-135652005#4" weight="1.00"/>
        <tazSink id="-135652005#4" weight="1.00"/>
        <tazSource id="-138309362#0" weight="1.00"/>
        <tazSink id="-138309362#0" weight="1.00"/>
        <tazSource id="-138309362#1" weight="1.00"/>
        <tazSink id="-138309362#1" weight="1.00"/>
        <tazSource id="-139486101" weight="1.00"/>
        <tazSink id="-139486101" weight="1.00"/>
        <tazSource id="-139486102" weight="1.00"/>
        <tazSink id="-139486102" weight="1.00"/>
        <tazSource id="-139822258#0" weight="1.00"/>
        <tazSink id="-139822258#0" weight="1.00"/>
        <tazSource id="-139822258#1" weight="1.00"/>
        <tazSink id="-139822258#1" weight="1.00"/>
        <tazSource id="-139822258#2" weight="1.00"/>
        <tazSink id="-139822258#2" weight="1.00"/>
        <tazSource id="-139822258#3" weight="1.00"/>
        <tazSink id="-139822258#3" weight="1.00"/>
        <tazSource id="-139822258#4" weight="1.00"/>
        <tazSink id="-139822258#4" weight="1.00"/>
        <tazSource id="-139822258#5" weight="1.00"/>
        <tazSink id="-139822258#5" weight="1.00"/>
        <tazSource id="-139822258#6" weight="1.00"/>
        <tazSink id="-139822258#6" weight="1.00"/>
        <tazSource id="-139822260#0" weight="1.00"/>
        <tazSink id="-139822260#0" weight="1.00"/>
        <tazSource id="-139822260#1" weight="1.00"/>
        <tazSink id="-139822260#1" weight="1.00"/>
        <tazSource id="-139822265#0" weight="1.00"/>
        <tazSink id="-139822265#0" weight="1.00"/>
        <tazSource id="-139822265#1" weight="1.00"/>
        <tazSink id="-139822265#1" weight="1.00"/>
        <tazSource id="-139822266" weight="1.00"/>
        <tazSink id="-139822266" weight="1.00"/>
        <tazSource id="-139822268#0" weight="1.00"/>
        <tazSink id="-139822268#0" weight="1.00"/>
        <tazSource id="-139822268#1" weight="1.00"/>
        <tazSink id="-139822268#1" weight="1.00"/>
        <tazSource id="-139822270#0" weight="1.00"/>
        <tazSink id="-139822270#0" weight="1.00"/>
        <tazSource id="-139822270#1" weight="1.00"/>
        <tazSink id="-139822270#1" weight="1.00"/>
        <tazSource id="-139822270#2" weight="1.00"/>
        <tazSink id="-139822270#2" weight="1.00"/>
        <tazSource id="-139822270#3" weight="1.00"/>
        <tazSink id="-139822270#3" weight="1.00"/>
        <tazSource id="-139822270#4" weight="1.00"/>
        <tazSink id="-139822270#4" weight="1.00"/>
        <tazSource id="-139844347#0" weight="1.00"/>
        <tazSink id="-139844347#0" weight="1.00"/>
        <tazSource id="-139844347#1" weight="1.00"/>
        <tazSink id="-139844347#1" weight="1.00"/>
        <tazSource id="-139844347#2" weight="1.00"/>
        <tazSink id="-139844347#2" weight="1.00"/>
        <tazSource id="-139844347#3" weight="1.00"/>
        <tazSink id="-139844347#3" weight="1.00"/>
        <tazSource id="-139844347#4" weight="1.00"/>
        <tazSink id="-139844347#4" weight="1.00"/>
        <tazSource id="-139844347#5" weight="1.00"/>
        <tazSink id="-139844347#5" weight="1.00"/>
        <tazSource id="-139844347#6" weight="1.00"/>
        <tazSink id="-139844347#6" weight="1.00"/>
        <tazSource id="-139844349#0" weight="1.00"/>
        <tazSink id="-139844349#0" weight="1.00"/>
        <tazSource id="-139844349#1" weight="1.00"/>
        <tazSink id="-139844349#1" weight="1.00"/>
        <tazSource id="-139844349#2" weight="1.00"/>
        <tazSink id="-139844349#2" weight="1.00"/>
        <tazSource id="-139844349#3" weight="1.00"/>
        <tazSink id="-139844349#3" weight="1.00"/>
        <tazSource id="-139844349#4" weight="1.00"/>
        <tazSink id="-139844349#4" weight="1.00"/>
        <tazSource id="-139844349#5" weight="1.00"/>
        <tazSink id="-139844349#5" weight="1.00"/>
        <tazSource id="-139878249#0" weight="1.00"/>
        <tazSink id="-139878249#0" weight="1.00"/>
        <tazSource id="-139878249#1" weight="1.00"/>
        <tazSink id="-139878249#1" weight="1.00"/>
        <tazSource id="-139878249#2" weight="1.00"/>
        <tazSink id="-139878249#2" weight="1.00"/>
        <tazSource id="-139878249#3" weight="1.00"/>
        <tazSink id="-139878249#3" weight="1.00"/>
        <tazSource id="-139962802" weight="1.00"/>
        <tazSink id="-139962802" weight="1.00"/>
        <tazSource id="-145164986#0" weight="1.00"/>
        <tazSink id="-145164986#0" weight="1.00"/>
        <tazSource id="-145164986#1" weight="1.00"/>
        <tazSink id="-145164986#1" weight="1.00"/>
        <tazSource id="-146588039#0" weight="1.00"/>
        <tazSink id="-146588039#0" weight="1.00"/>
        <tazSource id="-146588039#1" weight="1.00"/>
        <tazSink id="-146588039#1" weight="1.00"/>
        <tazSource id="-146588039#2" weight="1.00"/>
        <tazSink id="-146588039#2" weight="1.00"/>
        <tazSource id="-146588039#3" weight="1.00"/>
        <tazSink id="-146588039#3" weight="1.00"/>
        <tazSource id="-146588039#6" weight="1.00"/>
        <tazSink id="-146588039#6" weight="1.00"/>
        <tazSource id="-146588039#7" weight="1.00"/>