<?xml version="1.0" encoding="UTF-8"?>

<!-- generated on 2023-07-23 12:29:34.507027 by randomTrips.py v1_18_0+0000-03ecfdea036
<configuration>
    <net-file value=".\input\network.net.xml"/>
    <validate value="True"/>
    <end value="1000.0"/>
</configuration>
-->

<!-- generated on 2023-07-23 12:29:32 by Eclipse SUMO duarouter Version 1.18.0
<configuration xmlns:xsi="http://www.w3.org/2001/XMLSchema-instance" xsi:noNamespaceSchemaLocation="http://sumo.dlr.de/xsd/duarouterConfiguration.xsd">

    <input>
        <net-file value=".\input\network.net.xml"/>
        <route-files value="trips.trips.xml"/>
    </input>

    <output>
        <output-file value="trips.trips.xml.tmp"/>
        <alternatives-output value="NUL"/>
        <write-trips value="true"/>
    </output>

    <time>
        <begin value="0"/>
        <end value="1000.0"/>
    </time>

    <report>
        <no-warnings value="true"/>
        <ignore-errors value="true"/>
        <no-step-log value="true"/>
    </report>

</configuration>
-->

<routes xmlns:xsi="http://www.w3.org/2001/XMLSchema-instance" xsi:noNamespaceSchemaLocation="http://sumo.dlr.de/xsd/routes_file.xsd">
    <trip id="0" depart="0.00" from="415418918#0" to="-135652001#1"/>
    <trip id="1" depart="1.00" from="-51820313#2" to="-51398585#2"/>
    <trip id="2" depart="2.00" from="51200266#6" to="48211315#2"/>
    <trip id="3" depart="3.00" from="75616621#1" to="-23328574#1"/>
    <trip id="4" depart="4.00" from="-86473324#0" to="-139844349#0"/>
    <trip id="5" depart="5.00" from="-51142643#0" to="139878249#0"/>
    <trip id="6" depart="6.00" from="-130729278#5" to="-51138297#1"/>
    <trip id="7" depart="7.00" from="45324704#0" to="175958443#0"/>
    <trip id="8" depart="8.00" from="-51149938#0" to="323617606#0"/>
    <trip id="9" depart="9.00" from="521706070#0" to="-1066473172#2"/>
    <trip id="10" depart="10.00" from="52030494#1" to="51138154#12"/>
    <trip id="11" depart="11.00" from="-58060030#5" to="-48161566#15"/>
    <trip id="12" depart="12.00" from="94526361#5" to="-677242338#1"/>
    <trip id="13" depart="13.00" from="-23328567#2" to="-29231523#0"/>
    <trip id="14" depart="14.00" from="58060058#1" to="39540697"/>
    <trip id="15" depart="15.00" from="52096578#0" to="51398585#0"/>
    <trip id="16" depart="16.00" from="146588039#7" to="99457767#1"/>
    <trip id="17" depart="17.00" from="-74476999#18" to="176437588#0"/>
    <trip id="18" depart="18.00" from="55360154#1" to="415418927"/>
    <trip id="19" depart="19.00" from="676823401#0" to="26175437#6"/>
    <trip id="20" depart="20.00" from="485067571#0" to="-166029223#3"/>
    <trip id="21" depart="21.00" from="-51200266#13" to="-52868855#1"/>
    <trip id="22" depart="22.00" from="-176437608#1" to="-51548270#4"/>
    <trip id="23" depart="23.00" from="-26175437#5" to="-52018802#13"/>
    <trip id="24" depart="24.00" from="401180903#1" to="-75616603#9"/>
    <trip id="25" depart="25.00" from="-72107997#2" to="-51189360#1"/>
    <trip id="26" depart="26.00" from="-51748702#0" to="91375465#13"/>
    <trip id="27" depart="27.00" from="436286016#7" to="39598219#5"/>
    <trip id="28" depart="28.00" from="-48161620#7" to="51398095#6"/>
    <trip id="29" depart="29.00" from="-48135948#7" to="-808816611#0"/>
    <trip id="30" depart="30.00" from="E244" to="459849644#0"/>
    <trip id="31" depart="31.00" from="167423767#0" to="485053287#22"/>
    <trip id="32" depart="32.00" from="56009507#3" to="51984185#4"/>
    <trip id="33" depart="33.00" from="-51200266#7" to="-146588039#7"/>
    <trip id="34" depart="34.00" from="-549673942#2" to="-51984193#1"/>
    <trip id="35" depart="35.00" from="-51138154#2" to="91375527#0"/>
    <trip id="36" depart="36.00" from="741815385#0" to="-56009483#0"/>
    <trip id="37" depart="37.00" from="45781497#3" to="-86296553#9"/>
    <trip id="38" depart="38.00" from="86127780#1" to="-E29"/>
    <trip id="39" depart="39.00" from="-51728817#1" to="-51702095#2"/>
    <trip id="40" depart="40.00" from="168817149#1" to="-51826569#2"/>
    <trip id="41" depart="41.00" from="197773683#1" to="808467051#0"/>
    <trip id="42" depart="42.00" from="-80397282#1" to="-51271000#4"/>
    <trip id="43" depart="43.00" from="E8" to="146588039#2"/>
    <trip id="44" depart="44.00" from="-225999329" to="-167423758#0"/>
    <trip id="45" depart="45.00" from="-323611422" to="450940509#1"/>
    <trip id="46" depart="46.00" from="51984189#5" to="-927496847"/>
    <trip id="47" depart="47.00" from="-173788493#0" to="-82717256#0"/>
    <trip id="48" depart="48.00" from="E70" to="167423758#1"/>
    <trip id="49" depart="49.00" from="99316718" to="71319076#4"/>
    <trip id="50" depart="50.00" from="-1103877578#1" to="51270413#3"/>
    <trip id="51" depart="51.00" from="48162112#1" to="169815057"/>
    <trip id="52" depart="52.00" from="-51748695" to="463272122#1"/>
    <trip id="53" depart="53.00" from="-340847019#1" to="-95776242#3"/>
    <trip id="54" depart="54.00" from="-93308956#0" to="936997712#1"/>
    <trip id="55" depart="55.00" from="74119572#1" to="-51826582#1"/>
    <trip id="56" depart="56.00" from="100639972#0" to="-48211324#1"/>
    <trip id="57" depart="57.00" from="85470048#0" to="741934440#3"/>
    <trip id="58" depart="58.00" from="-52030494#6" to="45786301#9"/>
    <trip id="59" depart="59.00" from="309631702#0" to="-48135948#0"/>
    <trip id="60" depart="60.00" from="51683177#0" to="173788493#3"/>
    <trip id="61" depart="61.00" from="51760881" to="167423763#0"/>
    <trip id="62" depart="62.00" from="-100639972#0" to="-58499343#0"/>
    <trip id="63" depart="63.00" from="-1160836018#1" to="89080932"/>
    <trip id="64" depart="64.00" from="741934440#2" to="56009514#3"/>
    <trip id="65" depart="65.00" from="-52868855#5" to="-173788494#2"/>
    <trip id="66" depart="66.00" from="741815391#2" to="92409495#4"/>
    <trip id="67" depart="67.00" from="-197773683#19" to="114925790"/>
    <trip id="68" depart="68.00" from="-175958441#1" to="51748687#1"/>
    <trip id="69" depart="69.00" from="51696559#2" to="-415418923#1"/>
    <trip id="70" depart="70.00" from="-E0" to="176437559"/>
    <trip id="71" depart="71.00" from="-51728817#2" to="74476999#14"/>
    <trip id="72" depart="72.00" from="-86484110#2" to="-51199624#2"/>
    <trip id="73" depart="73.00" from="146588339#2" to="51398585#1"/>
    <trip id="74" depart="74.00" from="-493825981" to="-559505746#2"/>
    <trip id="75" depart="75.00" from="E62" to="48161566#0"/>
    <trip id="76" depart="76.00" from="-91006984#1" to="164044098#1"/>
    <trip id="77" depart="77.00" from="-39540687#4" to="-51398788#1"/>
    <trip id="78" depart="78.00" from="-572105627#0" to="323611425#1"/>
    <trip id="79" depart="79.00" from="-51225886#5" to="-51272618#1"/>
    <trip id="80" depart="80.00" from="-175958449#1" to="45326122#9"/>
    <trip id="81" depart="81.00" from="-51200266#6" to="85470044#2"/>
    <trip id="82" depart="82.00" from="644679890#0" to="-176437603#1"/>
    <trip id="83" depart="83.00" from="-51398786#3" to="48180169#5"/>
    <trip id="84" depart="84.00" from="-51138328#0" to="-429885894#0"/>
    <trip id="85" depart="85.00" from="90628100#6" to="23328570#9"/>
    <trip id="86" depart="86.00" from="-99378901#0" to="51984239#1"/>
    <trip id="87" depart="87.00" from="521697214#0" to="-49743624#7"/>
    <trip id="88" depart="88.00" from="-253143836#11" to="-95641941#2"/>
    <trip id="89" depart="89.00" from="-86484116#0" to="-E85"/>
    <trip id="90" depart="90.00" from="51160007#8" to="48197410#0"/>
    <trip id="91" depart="91.00" from="E168" to="-306823027#0"/>
    <trip id="92" depart="92.00" from="-808387838#6" to="-688586386#1"/>
    <trip id="93" depart="93.00" from="676823401#0" to="-51716227#0"/>
    <trip id="94" depart="94.00" from="-48211315#0" to="-E13"/>
    <trip id="95" depart="95.00" from="-86473324#0" to="-52018802#4"/>
    <trip id="96" depart="96.00" from="-51683157#1" to="86849761#1"/>
    <trip id="97" depart="97.00" from="-91375465#3" to="71319076#8"/>
    <trip id="98" depart="98.00" from="166029220#4" to="-167423768#2"/>
    <trip id="99" depart="99.00" from="E92" to="58060058#1"/>
    <trip id="100" depart="100.00" from="984788616#1" to="88327587#0"/>
    <trip id="101" depart="101.00" from="583891302#0" to="-48162136#2"/>
    <trip id="102" depart="102.00" from="-E18" to="-51200266#10"/>
    <trip id="103" depart="103.00" from="-805926618#3" to="-174576935#1"/>
    <trip id="104" depart="104.00" from="-74476999#3" to="E189"/>
    <trip id="105" depart="105.00" from="-51728817#3" to="51984233#0"/>
    <trip id="106" depart="106.00" from="-936996515" to="-927496851#0"/>
    <trip id="107" depart="107.00" from="94526362#0" to="E65"/>
    <trip id="108" depart="108.00" from="167423764#0" to="51200266#5"/>
    <trip id="109" depart="109.00" from="-463266698" to="-549673941"/>
    <trip id="110" depart="110.00" from="97661118#2" to="27207213#1"/>
    <trip id="111" depart="111.00" from="160374143#9" to="51696559#0"/>
    <trip id="112" depart="112.00" from="-167423769#0" to="29231523#6"/>
    <trip id="113" depart="113.00" from="1055599241" to="676823401#0"/>
    <trip id="114" depart="114.00" from="-478638718#1" to="95641963#1"/>
    <trip id="115" depart="115.00" from="-176437608#15" to="-48623140#0"/>
    <trip id="116" depart="116.00" from="23328574#5" to="48210974#1"/>
    <trip id="117" depart="117.00" from="-51341188#0" to="-39598219#5"/>
    <trip id="118" depart="118.00" from="75616603#4" to="-51702093#1"/>
    <trip id="119" depart="119.00" from="23328574#1" to="42243993#3"/>
    <trip id="120" depart="120.00" from="-86219787" to="29231523#2"/>
    <trip id="121" depart="121.00" from="130729278#3" to="91375452"/>
    <trip id="122" depart="122.00" from="-500248988#0" to="51199630#4"/>
    <trip id="123" depart="123.00" from="-51398788#1" to="-863035411#1"/>
    <trip id="124" depart="124.00" from="48135949#2" to="-55350828"/>
    <trip id="125" depart="125.00" from="-55290135#1" to="51696583#0"/>
    <trip id="126" depart="126.00" from="-175960783#1" to="-E25"/>
    <trip id="127" depart="127.00" from="E87" to="E70"/>
    <trip id="128" depart="128.00" from="-175960788#2" to="-51199631#1"/>
    <trip id="129" depart="129.00" from="-51728817#3" to="91006528"/>
    <trip id="130" depart="130.00" from="74476999#17" to="75611632#0"/>
    <trip id="131" depart="131.00" from="-72107992#0" to="-48161585#0"/>
    <trip id="132" depart="132.00" from="557687460#1" to="51138955#1"/>
    <trip id="133" depart="133.00" from="323611425#3" to="E21"/>
    <trip id="134" depart="134.00" from="45781461#13" to="-1073568561#1"/>
    <trip id="135" depart="135.00" from="52868862#1" to="-55350825#0"/>
    <trip id="136" depart="136.00" from="463273916#0" to="91375465#29"/>
    <trip id="137" depart="137.00" from="-40864059#1" to="-39540730#0"/>
    <trip id="138" depart="138.00" from="-306823027#1" to="176437595#0"/>
    <trip id="139" depart="139.00" from="-51818690#0" to="39540730#3"/>
    <trip id="140" depart="140.00" from="51138154#2" to="-51140601#5"/>
    <trip id="141" depart="141.00" from="401156233" to="-51984182#0"/>
    <trip id="142" depart="142.00" from="-E227" to="85470044#1"/>
    <trip id="143" depart="143.00" from="58060030#3" to="-26175437#4"/>
    <trip id="144" depart="144.00" from="-86484116#0" to="-52018793#3"/>
    <trip id="145" depart="145.00" from="-1059305957#0" to="51826556#3"/>
    <trip id="146" depart="146.00" from="40864059#1" to="-51826567#1"/>
    <trip id="147" depart="147.00" from="51270445" to="176437584#2"/>
    <trip id="148" depart="148.00" from="-86849776#0" to="-1103877578#0"/>
    <trip id="149" depart="149.00" from="-176437576#1" to="75616603#5"/>
    <trip id="150" depart="150.00" from="808387838#4" to="175958445#1"/>
    <trip id="151" depart="151.00" from="557691988#5" to="274792072#3"/>
    <trip id="152" depart="152.00" from="-45324704#3" to="-415418914#2"/>
    <trip id="153" depart="153.00" from="-52868857#3" to="808467078"/>
    <trip id="154" depart="154.00" from="51984197" to="71319076#3"/>
    <trip id="155" depart="155.00" from="77666292#4" to="-51189364"/>
    <trip id="156" depart="156.00" from="-51683155#6" to="-340847019#2"/>
    <trip id="157" depart="157.00" from="51818689#15" to="75616612"/>
    <trip id="158" depart="158.00" from="-809043970#0" to="422986444#3"/>
    <trip id="159" depart="159.00" from="-459849644#1" to="90501653"/>
    <trip id="160" depart="160.00" from="681879390#1" to="E114"/>
    <trip id="161" depart="161.00" from="52374064#0" to="75616603#17"/>
    <trip id="162" depart="162.00" from="-129301611" to="51543938#1"/>
    <trip id="163" depart="163.00" from="-559505747#4" to="90628088#1"/>
    <trip id="164" depart="164.00" from="52018793#2" to="72107992#1"/>
    <trip id="165" depart="165.00" from="52374049#4" to="-51984190#3"/>
    <trip id="166" depart="166.00" from="51826566#1" to="-370009585#2"/>
    <trip id="167" depart="167.00" from="72107990#6" to="71319055#0"/>
    <trip id="168" depart="168.00" from="-51189358#1" to="55360154#1"/>
    <trip id="169" depart="169.00" from="-95641935#1" to="-55672769#0"/>
    <trip id="170" depart="170.00" from="51984193#4" to="-51414369#2"/>
    <trip id="171" depart="171.00" from="-127703117#1" to="-500248988#9"/>
    <trip id="172" depart="172.00" from="-55808078#1" to="72107997#1"/>
    <trip id="173" depart="173.00" from="95776254#1" to="-52018802#9"/>
    <trip id="174" depart="174.00" from="415418936#3" to="-86502541#1"/>
    <trip id="175" depart="175.00" from="E144" to="168817145#1"/>
    <trip id="176" depart="176.00" from="91375459#0" to="-39540730#0"/>
    <trip id="177" depart="177.00" from="984928760#0" to="-48211324#0"/>
    <trip id="178" depart="178.00" from="95641963#2" to="-51984186#1"/>
    <trip id="179" depart="179.00" from="-323398460#2" to="-95776242#1"/>
    <trip id="180" depart="180.00" from="51160007#4" to="-559505781#5"/>
    <trip id="181" depart="181.00" from="29231523#1" to="146588153#7"/>
    <trip id="182" depart="182.00" from="-75616582#1" to="26175437#11"/>
    <trip id="183" depart="183.00" from="-51696564#1" to="51149732#4"/>
    <trip id="184" depart="184.00" from="-1026459819#0" to="88316149#0"/>
    <trip id="185" depart="185.00" from="146588338#4" to="51225886#3"/>
    <trip id="186" depart="186.00" from="51270451" to="48182200#0"/>
    <trip id="187" depart="187.00" from="-71319055#0" to="-176437595#2"/>
    <trip id="188" depart="188.00" from="474131215" to="-607261490#0"/>
    <trip id="189" depart="189.00" from="-542756983" to="622353868#3"/>
    <trip id="190" depart="190.00" from="51138309#0" to="-55350832#1"/>
    <trip id="191" depart="191.00" from="-52868916#0" to="-90628100#8"/>
    <trip id="192" depart="192.00" from="-808387838#4" to="-54587063#0"/>
    <trip id="193" depart="193.00" from="-39542408#22" to="-91999878#2"/>
    <trip id="194" depart="194.00" from="91375465#15" to="48211324#4"/>
    <trip id="195" depart="195.00" from="805926618#3" to="40983871#3"/>
    <trip id="196" depart="196.00" from="-521706064#1" to="175960782#0"/>
    <trip id="198" depart="198.00" from="-88316149#1" to="274579738#0"/>
    <trip id="199" depart="199.00" from="45781461#7" to="-E70"/>
    <trip id="200" depart="200.00" from="-91375465#22" to="-51200266#10"/>
    <trip id="201" depart="201.00" from="-99382958#10" to="809043969#1"/>
    <trip id="202" depart="202.00" from="51984193#9" to="-48180158#5"/>
    <trip id="203" depart="203.00" from="-197773683#11" to="160374143#5"/>
    <trip id="204" depart="204.00" from="39598225#2" to="-676770688#0"/>
    <trip id="205" depart="205.00" from="533903267" to="51696569"/>
    <trip id="206" depart="206.00" from="48161566#15" to="-51398788#0"/>
    <trip id="207" depart="207.00" from="-48623140#3" to="-135632927#1"/>
    <trip id="208" depart="208.00" from="-51547955#4" to="1066008293"/>
    <trip id="209" depart="209.00" from="58499341#0" to="-176437608#2"/>
    <trip id="210" depart="210.00" from="-86127780#8" to="45324899#3"/>
    <trip id="211" depart="211.00" from="-48270858#0" to="50075640#1"/>
    <trip id="212" depart="212.00" from="-E55" to="-51696586#0"/>
    <trip id="213" depart="213.00" from="45781497#9" to="-1066008294#0"/>
    <trip id="214" depart="214.00" from="51399355#1" to="51820317#1"/>
    <trip id="216" depart="216.00" from="-48162118#1" to="95641909#7"/>
    <trip id="217" depart="217.00" from="116618950" to="-167423767#3"/>
    <trip id="218" depart="218.00" from="-51683155#4" to="622353868#5"/>
    <trip id="219" depart="219.00" from="-94526359" to="52868855#1"/>
    <trip id="220" depart="220.00" from="48036246#0" to="E224"/>
    <trip id="221" depart="221.00" from="233635121#2" to="93057741#1"/>
    <trip id="222" depart="222.00" from="75616610#2" to="401180603#1"/>
    <trip id="223" depart="223.00" from="51138300#2" to="139844349#1"/>
    <trip id="224" depart="224.00" from="55480969#0" to="175960779#1"/>
    <trip id="225" depart="225.00" from="77366101#0" to="51683157#1"/>
    <trip id="226" depart="226.00" from="-99457767#0" to="-51820322"/>
    <trip id="227" depart="227.00" from="-51551560#1" to="45786301#10"/>
    <trip id="228" depart="228.00" from="51696559#2" to="164790500#5"/>
    <trip id="229" depart="229.00" from="39540729#0" to="-52018789#1"/>
    <trip id="230" depart="230.00" from="-176437595#0" to="-52374064#2"/>
    <trip id="231" depart="231.00" from="-51818689#6" to="-572105630#7"/>
    <trip id="232" depart="232.00" from="158634332#0" to="-45324704#3"/>
    <trip id="233" depart="233.00" from="-51270413#4" to="500248988#6"/>
    <trip id="234" depart="234.00" from="48988791#5" to="-175958450#3"/>
    <trip id="235" depart="235.00" from="-831144375#1" to="175836871#1"/>
    <trip id="236" depart="236.00" from="-86127799#1" to="-51149732#5"/>
    <trip id="237" depart="237.00" from="-86296553#0" to="848463704#5"/>
    <trip id="238" depart="238.00" from="197773391#3" to="50051551#1"/>
    <trip id="239" depart="239.00" from="607261493#0" to="51818689#4"/>
    <trip id="240" depart="240.00" from="-751019008#0" to="-1066008305"/>
    <trip id="241" depart="241.00" from="-607261493#1" to="51696590#0"/>
    <trip id="242" depart="242.00" from="588532737#0" to="936997709"/>
    <trip id="243" depart="243.00" from="-86203644" to="51696531#6"/>
    <trip id="244" depart="244.00" from="164790499#3" to="39540696#0"/>
    <trip id="245" depart="245.00" from="-51149938#0" to="-51271000#4"/>
    <trip id="246" depart="246.00" from="-90628100#5" to="-139844347#1"/>
    <trip id="247" depart="247.00" from="-56009507#0" to="48211799#0"/>
    <trip id="248" depart="248.00" from="-808816605" to="-48162114#0"/>
    <trip id="249" depart="249.00" from="-95949158" to="-415418918#0"/>
    <trip id="250" depart="250.00" from="386907745" to="-139822258#5"/>
    <trip id="251" depart="251.00" from="-75978514#4" to="209323275#0"/>
    <trip id="252" depart="252.00" from="-130858919#1" to="474385187#2"/>
    <trip id="253" depart="253.00" from="-413504897" to="-E48"/>
    <trip id="254" depart="254.00" from="-166029221#2" to="-808816605"/>
    <trip id="255" depart="255.00" from="-51138154#7" to="-587467869#0"/>
    <trip id="256" depart="256.00" from="51683155#5" to="-808816605"/>
    <trip id="257" depart="257.00" from="51414369#2" to="56052987#1"/>
    <trip id="258" depart="258.00" from="-51684525#3" to="-222525139"/>
    <trip id="259" depart="259.00" from="-1160836018#0" to="173788493#3"/>
    <trip id="260" depart="260.00" from="E99" to="-74119572#1"/>
    <trip id="261" depart="261.00" from="45324704#2" to="51984193#7"/>
    <trip id="262" depart="262.00" from="45324899#3" to="51696595"/>
    <trip id="263" depart="263.00" from="92409495#4" to="-51138300#2"/>
    <trip id="264" depart="264.00" from="-1162961181#0" to="-48036550#1"/>
    <trip id="265" depart="265.00" from="-39542408#15" to="48180171#1"/>
    <trip id="266" depart="266.00" from="173788493#0" to="-51270415#2"/>
    <trip id="267" depart="267.00" from="48270855#6" to="51818690#3"/>
    <trip id="268" depart="268.00" from="-48161585#3" to="39542408#20"/>
    <trip id="269" depart="269.00" from="51398586#1" to="-39540728#0"/>
    <trip id="270" depart="270.00" from="533906418#0" to="95776248#0"/>
    <trip id="271" depart="271.00" from="-323398460#0" to="-135652005#4"/>
    <trip id="272" depart="272.00" from="-533906419#1" to="48211324#4"/>
    <trip id="273" depart="273.00" from="95510949#0" to="-86473324#4"/>
    <trip id="274" depart="274.00" from="50308207#0" to="-197773382#8"/>
    <trip id="275" depart="275.00" from="48180176#0" to="450940509#0"/>
    <trip id="276" depart="276.00" from="-268231314#1" to="51826565#1"/>
    <trip id="277" depart="277.00" from="58499854#0" to="39540686#1"/>
    <trip id="278" depart="278.00" from="-39540687#4" to="E17"/>
    <trip id="279" depart="279.00" from="51818690#6" to="-72107997#4"/>
    <trip id="280" depart="280.00" from="-871350574#2" to="-77366101#0"/>
    <trip id="281" depart="281.00" from="1062804790" to="-71319052"/>
    <trip id="282" depart="282.00" from="58499330" to="55808076#1"/>
    <trip id="283" depart="283.00" from="-29231523#10" to="95641963#1"/>
    <trip id="284" depart="284.00" from="401180903#1" to="56009483#2"/>
    <trip id="285" depart="285.00" from="493825978#2" to="-95776245#0"/>
    <trip id="286" depart="286.00" from="51199630#3" to="95776254#2"/>
    <trip id="287" depart="287.00" from="-51818689#11" to="542756982#1"/>
    <trip id="288" depart="288.00" from="146588338#2" to="112293997"/>
    <trip id="289" depart="289.00" from="-90628100#3" to="51398787#0"/>
    <trip id="290" depart="290.00" from="-51760847" to="676510516#1"/>
    <trip id="291" depart="291.00" from="55480969#1" to="-23328570#8"/>
    <trip id="292" depart="292.00" from="74476999#6" to="-51696585#1"/>
    <trip id="293" depart="293.00" from="-95776242#2" to="39598225#2"/>
    <trip id="294" depart="294.00" from="-74476999#3" to="-139822270#4"/>
    <trip id="295" depart="295.00" from="586399983#1" to="-48270858#1"/>
    <trip id="296" depart="296.00" from="-51138297#0" to="52374064#2"/>
    <trip id="297" depart="297.00" from="-58060035" to="75616603#1"/>
    <trip id="298" depart="298.00" from="485053279" to="-52018793#0"/>
    <trip id="299" depart="299.00" from="-1102374776#1" to="927496833#5"/>
    <trip id="300" depart="300.00" from="-197773683#18" to="51225886#7"/>
    <trip id="301" depart="301.00" from="-E227" to="51716227#1"/>
    <trip id="302" depart="302.00" from="48180176#0" to="48036246#2"/>
    <trip id="303" depart="303.00" from="-E31" to="52030494#9"/>
    <trip id="304" depart="304.00" from="-23328569#1" to="-51398095#1"/>
    <trip id="305" depart="305.00" from="48182224#1" to="-55672779#2"/>
    <trip id="306" depart="306.00" from="197330995#0" to="1059305957#5"/>
    <trip id="307" depart="307.00" from="139844349#0" to="-936996519"/>
    <trip id="308" depart="308.00" from="51398095#0" to="-607261493#0"/>
    <trip id="309" depart="309.00" from="485053287#19" to="-51984200#1"/>
    <trip id="310" depart="310.00" from="-51684482#2" to="-39598223#2"/>
    <trip id="311" depart="311.00" from="-48211799#1" to="-39598219#2"/>
    <trip id="312" depart="312.00" from="146588039#2" to="51760843#3"/>
    <trip id="313" depart="313.00" from="-48182200#4" to="-51225886#5"/>
    <trip id="314" depart="314.00" from="-E169" to="51271000#3"/>
    <trip id="315" depart="315.00" from="E11" to="166029220#1"/>
    <trip id="316" depart="316.00" from="-51984189#4" to="-323586862#3"/>
    <trip id="317" depart="317.00" from="-48270856#1" to="-51414369#1"/>
    <trip id="318" depart="318.00" from="-48180156#1" to="-1150457075#0"/>
    <trip id="319" depart="319.00" from="146587943#1" to="-51984250#0"/>
    <trip id="320" depart="320.00" from="99382958#7" to="176437595#1"/>
    <trip id="321" depart="321.00" from="48211327#0" to="-40983871#2"/>
    <trip id="322" depart="322.00" from="71319074#0" to="116618951#1"/>
    <trip id="323" depart="323.00" from="72107997#0" to="253143836#17"/>
    <trip id="324" depart="324.00" from="-984788616#3" to="-99151370#0"/>
    <trip id="325" depart="325.00" from="-48180176#1" to="-167604639#0"/>
    <trip id="326" depart="326.00" from="91375465#2" to="1073568559"/>
    <trip id="327" depart="327.00" from="54587063#3" to="-86842627#0"/>
    <trip id="328" depart="328.00" from="-176437559" to="45324899#1"/>
    <trip id="329" depart="329.00" from="-167423758#1" to="-478638719#2"/>
    <trip id="330" depart="330.00" from="173227507#2" to="-55462382"/>
    <trip id="331" depart="331.00" from="E54" to="-39542408#4"/>
    <trip id="332" depart="332.00" from="51696531#1" to="39542408#14"/>
    <trip id="333" depart="333.00" from="51984185#4" to="-51398790"/>
    <trip id="334" depart="334.00" from="130729278#1" to="-E146"/>
    <trip id="335" depart="335.00" from="-91375465#27" to="71319076#0"/>
    <trip id="336" depart="336.00" from="E28" to="-55672769#2"/>
    <trip id="337" depart="337.00" from="376026471#1" to="39598223#1"/>
    <trip id="338" depart="338.00" from="51270435#0" to="927496833#2"/>
    <trip id="339" depart="339.00" from="-50051551#1" to="-51199623#1"/>
    <trip id="340" depart="340.00" from="45786301#4" to="-48161566#7"/>
    <trip id="341" depart="341.00" from="-48161639" to="-197773382#2"/>
    <trip id="342" depart="342.00" from="-1055599241" to="-E146"/>
    <trip id="343" depart="343.00" from="23328570#4" to="-52868864#0"/>
    <trip id="344" depart="344.00" from="-51270413#6" to="51142637#1"/>
    <trip id="345" depart="345.00" from="485053287#2" to="-E175"/>
    <trip id="346" depart="346.00" from="48180158#5" to="871350574#1"/>
    <trip id="347" depart="347.00" from="51826567#2" to="436286016#10"/>
    <trip id="348" depart="348.00" from="459514306" to="91006983"/>
    <trip id="349" depart="349.00" from="-86484129#1" to="175958441#0"/>
    <trip id="350" depart="350.00" from="436286016#4" to="86127780#0"/>
    <trip id="351" depart="351.00" from="55353708" to="-176437603#5"/>
    <trip id="352" depart="352.00" from="-48161566#2" to="-557687460#0"/>
    <trip id="353" depart="353.00" from="51398788#0" to="23328569#1"/>
    <trip id="354" depart="354.00" from="-51984209#2" to="-403590544#1"/>
    <trip id="355" depart="355.00" from="48180168#1" to="51138154#6"/>
    <trip id="356" depart="356.00" from="91375465#30" to="135652005#4"/>
    <trip id="357" depart="357.00" from="-E51" to="-209323275#1"/>
    <trip id="358" depart="358.00" from="-146607495#0" to="-95641962#6"/>
    <trip id="359" depart="359.00" from="-55360154#2" to="-51738618"/>
    <trip id="360" depart="360.00" from="-225999332#3" to="95776227#1"/>
    <trip id="361" depart="361.00" from="559505745#2" to="26175432#4"/>
    <trip id="362" depart="362.00" from="927496847" to="E95"/>
    <trip id="363" depart="363.00" from="48161566#11" to="-51984193#4"/>
    <trip id="364" depart="364.00" from="-146607495#3" to="51702404#1"/>
    <trip id="365" depart="365.00" from="-984928760#0" to="48161566#2"/>
    <trip id="366" depart="366.00" from="86127780#7" to="-48270856#0"/>
    <trip id="367" depart="367.00" from="197773683#14" to="45783767#5"/>
    <trip id="368" depart="368.00" from="-E38" to="-26175435#6"/>
    <trip id="369" depart="369.00" from="-590366928" to="-626881310"/>
    <trip id="370" depart="370.00" from="48135948#0" to="706714557#2"/>
    <trip id="371" depart="371.00" from="-559505745#6" to="500248988#4"/>
    <trip id="372" depart="372.00" from="-51984200#3" to="91853824#4"/>
    <trip id="373" depart="373.00" from="52374074#2" to="176437566"/>
    <trip id="374" depart="374.00" from="-936697397#5" to="-56008818#1"/>
    <trip id="375" depart="375.00" from="-55480968#2" to="993451644#3"/>
    <trip id="376" depart="376.00" from="-808467083#1" to="160374143#1"/>
    <trip id="377" depart="377.00" from="E222" to="48161622#2"/>
    <trip id="378" depart="378.00" from="160374155#2" to="-91375465#19"/>
    <trip id="379" depart="379.00" from="-48197412" to="-75616603#11"/>
    <trip id="380" depart="380.00" from="51547955#5" to="436286016#3"/>
    <trip id="381" depart="381.00" from="516341920#2" to="-51140601#5"/>
    <trip id="382" depart="382.00" from="166029218#0" to="88797412#0"/>
    <trip id="383" depart="383.00" from="-91006984#1" to="51138154#13"/>
    <trip id="384" depart="384.00" from="-39540688#0" to="99457767#1"/>
    <trip id="385" depart="385.00" from="306823027#4" to="-51696531#4"/>
    <trip id="386" depart="386.00" from="-478638718#8" to="176437574#1"/>
    <trip id="387" depart="387.00" from="166029222#7" to="-268231314#0"/>
    <trip id="388" depart="388.00" from="E43" to="86203637#1"/>
    <trip id="389" depart="389.00" from="-95641962#1" to="-39542408#16"/>
    <trip id="390" depart="390.00" from="55672779#2" to="133052799#1"/>
    <trip id="391" depart="391.00" from="51138154#13" to="146587943#5"/>
    <trip id="392" depart="392.00" from="-51820307#2" to="58060030#5"/>
    <trip id="393" depart="393.00" from="E137" to="-51696585#0"/>
    <trip id="394" depart="394.00" from="166029222#0" to="-848463704#3"/>
    <trip id="395" depart="395.00" from="86296553#10" to="146587943#11"/>
    <trip id="396" depart="396.00" from="74476994#2" to="72107992#0"/>
    <trip id="397" depart="397.00" from="-51826550#0" to="52018802#3"/>
    <trip id="398" depart="398.00" from="-86127790#5" to="91009081"/>
    <trip id="399" depart="399.00" from="1071312625" to="55672784#2"/>
    <trip id="400" depart="400.00" from="-51984189#3" to="-55350822#2"/>
    <trip id="401" depart="401.00" from="207904727#12" to="E9"/>
    <trip id="402" depart="402.00" from="-E241" to="-478638718#7"/>
    <trip id="403" depart="403.00" from="146588338#5" to="-718759966#0"/>
    <trip id="404" depart="404.00" from="166029222#4" to="175958433#0"/>
    <trip id="405" depart="405.00" from="-936996522#1" to="-58272476#0"/>
    <trip id="406" depart="406.00" from="-48210973#3" to="51138154#0"/>